REMARK 10 active torsions:
REMARK status: ('A' for Active; 'I' for Inactive)
REMARK 1 A between atoms: CZ1_1 and CZ2_32
REMARK I between atoms: CZ1_1 and NZ1_3
REMARK I between atoms: NZ1_3 and CB5_4
REMARK I between atoms: CB1_8 and CG1_10
REMARK 2 A between atoms: CG1_10 and CG2_19
REMARK I between atoms: CG1_10 and CA_11
REMARK 3 A between atoms: CA4_15 and CD_22
REMARK 4 A between atoms: CD_22 and CD1_23
REMARK 5 A between atoms: CD_22 and CE_25
REMARK 6 A between atoms: CE_25 and CE1_26
REMARK 7 A between atoms: CZ2_32 and CZ3_33
REMARK 8 A between atoms: CZ3_33 and NZ3_34
REMARK I between atoms: NZ3_34 and CZ4_35
REMARK 9 A between atoms: CZ4_35 and OZ5_37
REMARK 10 A between atoms: OZ5_37 and CZ5_38
ROOT
HETATM    1   C1 U02 A 100       1.523  25.963   1.432  1.00 16.00      0.258 C
HETATM    2   O1 U02 A 100       1.676  26.321   2.600  1.00 23.80     -0.270 OA
HETATM    3   N1 U02 A 100       2.442  25.248   0.806  1.00 18.60     -0.212 NA
HETATM    4   C5 U02 A 100       3.595  24.948   1.568  1.00 26.10      0.084 A
HETATM    5   C4 U02 A 100       3.477  23.954   2.534  1.00 39.90      0.019 A
HETATM    6   C3 U02 A 100       4.570  23.579   3.308  1.00 39.00      0.001 A
HETATM    7   C2 U02 A 100       5.798  24.197   3.113  1.00 25.30     -0.004 A
HETATM    8   C1 U02 A 100       5.927  25.210   2.167  1.00 15.10     -0.017 A
HETATM    9  C6B U02 A 100       4.836  25.569   1.360  1.00 18.90      0.015 A
HETATM   10  C1G U02 A 100       7.289  25.911   2.129  1.00 14.30      0.052 C
HETATM   11   CA U02 A 100       8.461  25.002   2.570  1.00 15.90      0.070 A
HETATM   12   C2 U02 A 100       8.822  23.987   1.661  1.00 23.50      0.298 A
HETATM   13   O2 U02 A 100       8.460  23.964   0.512  1.00 32.10     -0.259 OA
HETATM   14   O3 U02 A 100       9.842  23.204   1.953  1.00 22.00     -0.278 OA
HETATM   15   C4 U02 A 100      10.556  23.339   3.091  1.00 23.90      0.083 A
HETATM   16   C5 U02 A 100      10.221  24.286   4.064  1.00 15.40      0.048 A
HETATM   17   C6 U02 A 100       9.157  25.150   3.796  1.00 11.10      0.134 A
HETATM   18   O6 U02 A 100       8.754  25.880   4.875  1.00 7.80      -0.190 OA
ENDROOT
BRANCH 1 19
HETATM   19  C2Z U02 A 100       0.295  26.349   0.627  1.00 9.40       0.116 C
BRANCH 19 20
HETATM   20  C3Z U02 A 100      -0.910  25.397   0.546  1.00 11.90      0.141 C
BRANCH 20 21
HETATM   21  N3Z U02 A 100      -0.921  24.461  -2.323  1.00 23.90     -0.212 NA
HETATM   22  C4Z U02 A 100      -1.378  23.255  -2.623  1.00 47.70      0.383 C
HETATM   23  O4Z U02 A 100      -1.312  22.283  -1.855  1.00 57.60     -0.236 OA
BRANCH 22 24
HETATM   24  OZ5 U02 A 100      -1.982  22.688  -2.214  1.00 57.20     -0.289 OA
BRANCH 24 25
HETATM   25  C5Z U02 A 100      -4.549  34.961   0.005  1.00 49.20      0.103 C
HETATM   26  C6Z U02 A 100      -4.829  35.805  -1.247  1.00 43.60      0.030 C
HETATM   27  C7Z U02 A 100      -5.573  33.819   0.079  1.00 39.90      0.030 C
HETATM   28  C8Z U02 A 100      -4.700  35.822   1.261  1.00 52.80      0.030 C
ENDBRANCH 24 25
ENDBRANCH 22 24
ENDBRANCH 20 21
ENDBRANCH 19 20
ENDBRANCH 1 19
BRANCH 10 29
HETATM   29  C2G U02 A 100       7.486  26.585   0.803  1.00 20.80      0.008 A
HETATM   30  C3G U02 A 100       8.193  25.971  -0.382  1.00 24.50      0.001 A
HETATM   31  C4G U02 A 100       8.755  27.215   0.279  1.00 27.30      0.001 A
ENDBRANCH 10 29
BRANCH 15 32
HETATM   32   CD U02 A 100      11.862  22.680   3.222  1.00 22.80      0.050 C
BRANCH 32 33
HETATM   33  C1D U02 A 100      12.793  23.844   3.599  1.00 17.10      0.007 C
HETATM   34  C2D U02 A 100      12.100  24.833   4.563  1.00 8.50       0.000 C
ENDBRANCH 32 33
BRANCH 32 35
HETATM   35   CE U02 A 100      12.888  23.817   3.048  1.00 17.10      0.033 C
BRANCH 35 36
HETATM   36  C1E U02 A 100      13.967  24.348   3.969  1.00 34.10     -0.022 A
HETATM   37  C6E U02 A 100      14.694  25.479   3.643  1.00 57.90     -0.004 A
HETATM   38  C5E U02 A 100      15.693  25.929   4.498  1.00 50.00     -0.000 A
HETATM   39  C4E U02 A 100      15.963  25.257   5.683  1.00 61.60     -0.000 A
HETATM   40  C3E U02 A 100      15.222  24.129   6.010  1.00 65.60     -0.000 A
HETATM   41  C2E U02 A 100      14.221  23.677   5.158  1.00 56.70     -0.004 A
ENDBRANCH 35 36
ENDBRANCH 32 35
ENDBRANCH 15 32
TORSDOF 13
