REMARK  10 active torsions:
REMARK  status: ('A' for Active; 'I' for Inactive)
REMARK    1  A    between atoms: CZ1_1  and  CZ2_32 
REMARK       I    between atoms: CZ1_1  and  NZ1_3 
REMARK       I    between atoms: NZ1_3  and  CB5_4 
REMARK       I    between atoms: CB1_8  and  CG1_10 
REMARK    2  A    between atoms: CG1_10  and  CG2_19 
REMARK       I    between atoms: CG1_10  and  CA_11 
REMARK    3  A    between atoms: CA4_15  and  CD_22 
REMARK    4  A    between atoms: CD_22  and  CD1_23 
REMARK    5  A    between atoms: CD_22  and  CE_25 
REMARK    6  A    between atoms: CE_25  and  CE1_26 
REMARK    7  A    between atoms: CZ2_32  and  CZ3_33 
REMARK    8  A    between atoms: CZ3_33  and  NZ3_34 
REMARK       I    between atoms: NZ3_34  and  CZ4_35 
REMARK    9  A    between atoms: CZ4_35  and  OZ5_37 
REMARK   10  A    between atoms: OZ5_37  and  CZ5_38 
ROOT
HETATM    1  C1  U02 A 100       7.395  28.415   6.765  1.00 16.00     0.258 C 
HETATM    2  O1  U02 A 100       8.363  29.126   6.495  1.00 23.80    -0.270 OA
HETATM    3  N1  U02 A 100       7.538  27.125   7.015  1.00 18.60    -0.212 NA
HETATM    4  C5  U02 A 100       8.864  26.639   6.934  1.00 26.10     0.084 A 
HETATM    5  C4  U02 A 100       9.716  26.940   7.991  1.00 39.90     0.019 A 
HETATM    6  C3  U02 A 100      11.027  26.477   8.004  1.00 39.00     0.001 A 
HETATM    7  C2  U02 A 100      11.494  25.699   6.953  1.00 25.30    -0.004 A 
HETATM    8  C1  U02 A 100      10.662  25.408   5.876  1.00 15.10    -0.017 A 
HETATM    9  C6B U02 A 100       9.327  25.844   5.874  1.00 18.90     0.015 A 
HETATM   10  C1G U02 A 100      11.319  24.656   4.714  1.00 14.30     0.052 C 
HETATM   11  CA  U02 A 100      12.491  23.747   5.155  1.00 15.90     0.070 A 
HETATM   12  C2  U02 A 100      12.129  22.583   5.863  1.00 23.50     0.298 A 
HETATM   13  O2  U02 A 100      11.003  22.154   5.905  1.00 32.10    -0.259 OA
HETATM   14  O3  U02 A 100      13.074  21.740   6.230  1.00 22.00    -0.278 OA
HETATM   15  C4  U02 A 100      14.378  21.950   5.952  1.00 23.90     0.083 A 
HETATM   16  C5  U02 A 100      14.818  23.109   5.304  1.00 15.40     0.048 A 
HETATM   17  C6  U02 A 100      13.854  24.026   4.881  1.00 11.10     0.134 A 
HETATM   18  O6  U02 A 100      14.371  25.219   4.469  1.00  7.80    -0.190 OA
ENDROOT
BRANCH   1  19
HETATM   19  C2Z U02 A 100       5.978  28.961   6.790  1.00  9.40     0.116 C 
BRANCH  19  20
HETATM   20  C3Z U02 A 100       5.014  28.263   5.817  1.00 11.90     0.141 C 
BRANCH  20  21
HETATM   21  N3Z U02 A 100       5.536  27.908   4.486  1.00 23.90    -0.212 NA
HETATM   22  C4Z U02 A 100       5.116  26.818   3.862  1.00 47.70     0.383 C 
HETATM   23  O4Z U02 A 100       4.161  26.128   4.249  1.00 57.60    -0.236 OA
BRANCH  22  24
HETATM   24  OZ5 U02 A 100       5.787  26.481   2.690  1.00 57.20    -0.289 OA
BRANCH  24  25
HETATM   25  C5Z U02 A 100       5.382  25.289   1.986  1.00 49.20     0.103 C 
HETATM   26  C6Z U02 A 100       6.461  25.101   0.909  1.00 43.60     0.030 C 
HETATM   27  C7Z U02 A 100       5.323  24.029   2.861  1.00 39.90     0.030 C 
HETATM   28  C8Z U02 A 100       4.014  25.480   1.328  1.00 52.80     0.030 C 
ENDBRANCH  24  25
ENDBRANCH  22  24
ENDBRANCH  20  21
ENDBRANCH  19  20
ENDBRANCH   1  19
BRANCH  10  29
HETATM   29  C2G U02 A 100      10.274  23.969   3.886  1.00 20.80     0.008 A 
HETATM   30  C3G U02 A 100      10.368  23.731   2.398  1.00 24.50     0.001 A 
HETATM   31  C4G U02 A 100       9.272  24.616   2.959  1.00 27.30     0.001 A 
ENDBRANCH  10  29
BRANCH  15  32
HETATM   32  CD  U02 A 100      15.344  20.850   6.081  1.00 22.80     0.050 C 
BRANCH  32  33
HETATM   33  C1D U02 A 100      16.530  21.265   6.966  1.00 17.10     0.007 C 
HETATM   34  C2D U02 A 100      16.062  22.076   8.195  1.00  8.50     0.000 C 
ENDBRANCH  32  33
BRANCH  32  35
HETATM   35  CE  U02 A 100      15.631  20.416   4.630  1.00 17.10     0.033 C 
BRANCH  35  36
HETATM   36  C1E U02 A 100      16.818  19.506   4.390  1.00 34.10    -0.022 A 
HETATM   37  C6E U02 A 100      17.611  19.073   5.438  1.00 57.90    -0.004 A 
HETATM   38  C5E U02 A 100      18.707  18.257   5.184  1.00 50.00    -0.000 A 
HETATM   39  C4E U02 A 100      19.009  17.865   3.886  1.00 61.60    -0.000 A 
HETATM   40  C3E U02 A 100      18.202  18.294   2.840  1.00 65.60    -0.000 A 
HETATM   41  C2E U02 A 100      17.105  19.109   3.091  1.00 56.70    -0.004 A 
ENDBRANCH  35  36
ENDBRANCH  32  35
ENDBRANCH  15  32
TORSDOF 13
