REMARK  8 active torsions:
REMARK  status: ('A' for Active; 'I' for Inactive)
REMARK    1  A    between atoms: C3_1  and  C4_12 
REMARK    2  A    between atoms: C3_1  and  C2_2 
REMARK    3  A    between atoms: C3_1  and  N2_22 
REMARK    4  A    between atoms: C1_4  and  C7_9 
REMARK       I    between atoms: C4_12  and  N3_13 
REMARK    5  A    between atoms: N3_13  and  C9_15 
REMARK    6  A    between atoms: C9_15  and  C22_16 
REMARK       I    between atoms: N2_22  and  C10_23 
REMARK    7  A    between atoms: C10_23  and  C11_25 
REMARK    8  A    between atoms: C11_25  and  C13_26 
ROOT
HETATM    1  C3  G23 A 200       7.178  26.671   3.520  1.00 69.73     0.218 C 
ENDROOT
BRANCH   1   2
HETATM    2  C4  G23 A 200       5.886  26.648   2.695  1.00 72.37     0.277 C 
HETATM    3  O1  G23 A 200       4.875  26.097   3.041  1.00 72.75    -0.268 OA
HETATM    4  N3  G23 A 200       6.024  27.238   1.507  1.00 75.09    -0.231 NA
BRANCH   4   5
HETATM    5  C9  G23 A 200       4.971  27.321   0.551  1.00 78.00     0.155 C 
BRANCH   5   6
HETATM    6  C22 G23 A 200       5.569  27.717  -0.801  1.00 80.35     0.002 A 
HETATM    7  C21 G23 A 200       4.924  28.368  -1.785  1.00 81.14    -0.002 A 
HETATM    8  C20 G23 A 200       5.502  28.716  -2.981  1.00 81.66    -0.000 A 
HETATM    9  C19 G23 A 200       6.810  28.413  -3.214  1.00 81.84    -0.000 A 
HETATM   10  C18 G23 A 200       7.498  27.767  -2.225  1.00 81.57    -0.000 A 
HETATM   11  C23 G23 A 200       6.915  27.416  -1.056  1.00 81.22    -0.002 A 
ENDBRANCH   5   6
ENDBRANCH   4   5
ENDBRANCH   1   2
BRANCH   1  12
HETATM   12  C2  G23 A 200       7.808  25.274   3.400  1.00 68.08     0.177 C 
HETATM   13  S1  G23 A 200       8.458  24.895   1.772  1.00 66.99    -0.114 SA
HETATM   14  C8  G23 A 200      10.020  24.159   2.470  1.00 67.11     0.071 C 
HETATM   15  C6  G23 A 200      11.102  24.461   1.386  1.00 67.62     0.013 C 
HETATM   16  C5  G23 A 200      10.007  22.662   2.535  1.00 65.75     0.013 C 
HETATM   17  C1  G23 A 200      10.192  24.988   3.744  1.00 67.32     0.195 C 
HETATM   18  N1  G23 A 200       8.881  25.171   4.336  1.00 67.73    -0.274 NA
BRANCH  17  19
HETATM   19  C7  G23 A 200      11.100  24.573   4.893  1.00 66.99     0.209 C 
HETATM   20  O3  G23 A 200      10.883  23.529   5.486  1.00 66.32    -0.646 OA
HETATM   21  O4  G23 A 200      11.975  25.332   5.323  1.00 66.78    -0.646 OA
ENDBRANCH  17  19
ENDBRANCH   1  12
BRANCH   1  22
HETATM   22  N2  G23 A 200       7.060  27.032   4.926  1.00 67.91    -0.227 NA
HETATM   23  C10 G23 A 200       7.540  28.051   5.724  1.00 66.26     0.256 C 
HETATM   24  O2  G23 A 200       8.243  29.015   5.480  1.00 64.89    -0.270 OA
BRANCH  23  25
HETATM   25  C11 G23 A 200       7.105  27.809   7.144  1.00 65.84     0.116 C 
BRANCH  25  26
HETATM   26  C13 G23 A 200       8.367  27.826   7.964  1.00 65.54    -0.013 A 
HETATM   27  C14 G23 A 200       8.783  28.940   8.613  1.00 64.93    -0.004 A 
HETATM   28  C15 G23 A 200       9.931  28.934   9.377  1.00 64.70    -0.000 A 
HETATM   29  C16 G23 A 200      10.683  27.830   9.478  1.00 65.07    -0.000 A 
HETATM   30  C17 G23 A 200      10.237  26.655   8.822  1.00 65.67    -0.000 A 
HETATM   31  C12 G23 A 200       9.104  26.649   8.098  1.00 65.82    -0.004 A 
ENDBRANCH  25  26
ENDBRANCH  23  25
ENDBRANCH   1  22
TORSDOF 8
