REMARK 10 active torsions:
REMARK status: ('A' for Active; 'I' for Inactive)
REMARK 1 A between atoms: CZ1_1 and CZ2_32
REMARK I between atoms: CZ1_1 and NZ1_3
REMARK I between atoms: NZ1_3 and CB5_4
REMARK I between atoms: CB1_8 and CG1_10
REMARK 2 A between atoms: CG1_10 and CG2_19
REMARK I between atoms: CG1_10 and CA_11
REMARK 3 A between atoms: CA4_15 and CD_22
REMARK 4 A between atoms: CD_22 and CD1_23
REMARK 5 A between atoms: CD_22 and CE_25
REMARK 6 A between atoms: CE_25 and CE1_26
REMARK 7 A between atoms: CZ2_32 and CZ3_33
REMARK 8 A between atoms: CZ3_33 and NZ3_34
REMARK I between atoms: NZ3_34 and CZ4_35
REMARK 9 A between atoms: CZ4_35 and OZ5_37
REMARK 10 A between atoms: OZ5_37 and CZ5_38
ROOT
HETATM    1   C1 U02 A 100       4.040  27.042   4.238  1.00 16.00      0.258 C
HETATM    2   O1 U02 A 100       4.719  27.830   4.895  1.00 23.80     -0.270 OA
HETATM    3   N1 U02 A 100       4.530  25.883   3.834  1.00 18.60     -0.212 NA
HETATM    4   C5 U02 A 100       5.874  25.637   4.200  1.00 26.10      0.084 A
HETATM    5   C4 U02 A 100       6.117  25.281   5.522  1.00 39.90      0.019 A
HETATM    6   C3 U02 A 100       7.406  24.995   5.959  1.00 39.00      0.001 A
HETATM    7   C2 U02 A 100       8.466  25.058   5.065  1.00 25.30     -0.004 A
HETATM    8   C1 U02 A 100       8.245  25.436   3.744  1.00 15.10     -0.017 A
HETATM    9  C6B U02 A 100       6.941  25.692   3.289  1.00 18.90      0.015 A
HETATM   10  C1G U02 A 100       9.500  25.600   2.881  1.00 14.30      0.052 C
HETATM   11   CA U02 A 100      10.672  24.691   3.322  1.00 15.90      0.070 A
HETATM   12   C2 U02 A 100      10.517  23.317   3.048  1.00 23.50      0.298 A
HETATM   13   O2 U02 A 100       9.684  22.880   2.293  1.00 32.10     -0.259 OA
HETATM   14   O3 U02 A 100      11.496  22.491   3.356  1.00 22.00     -0.278 OA
HETATM   15   C4 U02 A 100      12.646  22.912   3.924  1.00 23.90      0.083 A
HETATM   16   C5 U02 A 100      12.849  24.250   4.277  1.00 15.40      0.048 A
HETATM   17   C6 U02 A 100      11.846  25.168   3.957  1.00 11.10      0.134 A
HETATM   18   O6 U02 A 100      12.017  26.394   4.531  1.00 7.80      -0.190 OA
ENDROOT
BRANCH 1 19
HETATM   19  C2Z U02 A 100       2.616  27.363   3.817  1.00 9.40       0.116 C
BRANCH 19 20
HETATM   20  C3Z U02 A 100       1.196  27.446   3.233  1.00 11.90      0.141 C
BRANCH 20 21
HETATM   21  N3Z U02 A 100       2.172  25.633   4.604  1.00 23.90     -0.212 NA
HETATM   22  C4Z U02 A 100       2.731  26.125   5.700  1.00 47.70      0.383 C
HETATM   23  O4Z U02 A 100       2.888  27.337   5.908  1.00 57.60     -0.236 OA
BRANCH 22 24
HETATM   24  OZ5 U02 A 100      -1.972  24.753  -2.427  1.00 57.20     -0.289 OA
BRANCH 24 25
HETATM   25  C5Z U02 A 100      11.712  32.141  -3.441  1.00 49.20      0.103 C
HETATM   26  C6Z U02 A 100      13.194  31.873  -3.137  1.00 43.60      0.030 C
HETATM   27  C7Z U02 A 100      11.187  31.044  -4.376  1.00 39.90      0.030 C
HETATM   28  C8Z U02 A 100      11.560  33.489  -4.149  1.00 52.80      0.030 C
ENDBRANCH 24 25
ENDBRANCH 22 24
ENDBRANCH 20 21
ENDBRANCH 19 20
ENDBRANCH 1 19
BRANCH 10 29
HETATM   29  C2G U02 A 100       9.145  25.499   1.427  1.00 20.80      0.008 A
HETATM   30  C3G U02 A 100       7.931  24.787   0.880  1.00 24.50      0.001 A
HETATM   31  C4G U02 A 100       9.322  24.301   0.524  1.00 27.30      0.001 A
ENDBRANCH 10 29
BRANCH 15 32
HETATM   32   CD U02 A 100      13.822  22.031   3.946  1.00 22.80      0.050 C
BRANCH 32 33
HETATM   33  C1D U02 A 100      13.505  22.059   5.450  1.00 17.10      0.007 C
HETATM   34  C2D U02 A 100      12.546  23.217   5.804  1.00 8.50       0.000 C
ENDBRANCH 32 33
BRANCH 32 35
HETATM   35   CE U02 A 100      14.750  22.599   2.855  1.00 17.10      0.033 C
BRANCH 35 36
HETATM   36  C1E U02 A 100      15.839  23.178   1.976  1.00 34.10     -0.022 A
HETATM   37  C6E U02 A 100      16.417  24.402   2.265  1.00 57.90     -0.004 A
HETATM   38  C5E U02 A 100      17.398  24.919   1.427  1.00 50.00     -0.000 A
HETATM   39  C4E U02 A 100      17.810  24.212   0.304  1.00 61.60     -0.000 A
HETATM   40  C3E U02 A 100      17.235  22.979   0.026  1.00 65.60     -0.000 A
HETATM   41  C2E U02 A 100      16.254  22.460   0.863  1.00 56.70     -0.004 A
ENDBRANCH 35 36
ENDBRANCH 32 35
ENDBRANCH 15 32
TORSDOF 13
