REMARK  10 active torsions:
REMARK  status: ('A' for Active; 'I' for Inactive)
REMARK       I    between atoms: C10_1  and  N3_2 
REMARK       I    between atoms: C10_1  and  C11_25 
REMARK    1  A    between atoms: C2_3  and  C3_8 
REMARK    2  A    between atoms: N1_5  and  C31_15 
REMARK       I    between atoms: C3_8  and  N2_10 
REMARK    3  A    between atoms: N2_10  and  C4_11 
REMARK    4  A    between atoms: C31_15  and  C32_16 
REMARK    5  A    between atoms: C11_25  and  C12_27 
REMARK    6  A    between atoms: C12_27  and  C13_28 
REMARK    7  A    between atoms: C13_28  and  C21_36 
REMARK    8  A    between atoms: C13_28  and  C14_29 
REMARK    9  A    between atoms: C14_29  and  C15_30 
REMARK       I    between atoms: C21_36  and  N4_38 
REMARK   10  A    between atoms: N4_38  and  C22_39 
ROOT
HETATM    1  C10 XN3 B 807       5.034  -1.478  16.685  1.00 22.80     0.283 C 
HETATM    2  N3  XN3 B 807       4.408  -2.732  16.155  1.00 24.89     0.151 N 
HETATM    3  C2  XN3 B 807       5.274  -4.003  16.455  1.00 25.38     0.332 C 
HETATM    4  C1  XN3 B 807       4.424  -5.136  15.883  1.00 28.53     0.294 C 
HETATM    5  N1  XN3 B 807       2.987  -5.221  16.433  1.00 32.07     0.146 N 
HETATM    6  C9  XN3 B 807       2.304  -3.992  16.089  1.00 29.01     0.286 C 
HETATM    7  C8  XN3 B 807       2.977  -2.721  16.623  1.00 25.69     0.286 C 
HETATM    8  C11 XN3 B 807       5.031  -0.404  15.652  1.00 21.82     0.186 C 
HETATM    9  O2  XN3 B 807       5.026   0.651  16.597  1.00 18.53    -0.221 OA
ENDROOT
BRANCH   8  10
HETATM   10  C12 XN3 B 807       6.260  -0.144  14.795  1.00 19.65     0.044 C 
BRANCH  10  11
HETATM   11  C13 XN3 B 807       6.247   0.968  13.736  1.00 20.74     0.083 C 
BRANCH  11  12
HETATM   12  C21 XN3 B 807       5.136   0.742  12.627  1.00 22.46     0.251 C 
HETATM   13  N4  XN3 B 807       4.646   1.895  12.231  1.00 22.78    -0.233 NA
HETATM   14  O3  XN3 B 807       4.774  -0.409  12.158  1.00 23.61    -0.271 OA
BRANCH  13  15
HETATM   15  C22 XN3 B 807       3.633   2.075  11.211  1.00 22.10     0.159 C 
HETATM   16  C23 XN3 B 807       3.599   3.499  10.677  1.00 19.09     0.183 C 
HETATM   17  C24 XN3 B 807       2.302   3.578   9.921  1.00 19.30     0.061 C 
HETATM   18  O4  XN3 B 807       3.736   4.453  11.726  1.00 17.77    -0.221 OA
HETATM   19  C25 XN3 B 807       1.255   2.845  10.718  1.00 20.10    -0.026 A 
HETATM   20  C30 XN3 B 807       2.167   1.848  11.576  1.00 20.81    -0.002 A 
HETATM   21  C26 XN3 B 807      -0.140   2.839  10.859  1.00 21.37    -0.026 A 
HETATM   22  C29 XN3 B 807       1.518   0.980  12.465  1.00 18.84    -0.007 A 
HETATM   23  C28 XN3 B 807       0.109   0.984  12.599  1.00 21.20    -0.022 A 
HETATM   24  C27 XN3 B 807      -0.724   1.905  11.805  1.00 22.65     0.052 A 
ENDBRANCH  13  15
ENDBRANCH  11  12
BRANCH  11  25
HETATM   25  C14 XN3 B 807       7.676   1.026  12.987  1.00 23.30     0.009 C 
BRANCH  25  26
HETATM   26  C15 XN3 B 807       7.708   2.134  11.912  1.00 24.68     0.001 A 
HETATM   27  C20 XN3 B 807       7.872   1.729  10.518  1.00 24.28     0.000 A 
HETATM   28  C19 XN3 B 807       7.895   2.718   9.474  1.00 27.74     0.000 A 
HETATM   29  C18 XN3 B 807       7.753   4.151   9.811  1.00 28.57     0.000 A 
HETATM   30  C17 XN3 B 807       7.586   4.581  11.223  1.00 27.15     0.000 A 
HETATM   31  C16 XN3 B 807       7.564   3.576  12.269  1.00 24.39     0.000 A 
ENDBRANCH  25  26
ENDBRANCH  11  25
ENDBRANCH  10  11
ENDBRANCH   8  10
BRANCH   3  32
HETATM   32  C3  XN3 B 807       6.589  -4.107  15.780  1.00 25.92     0.285 C 
HETATM   33  O1  XN3 B 807       6.690  -3.717  14.587  1.00 23.55    -0.268 OA
HETATM   34  N2  XN3 B 807       7.625  -4.613  16.505  1.00 24.16    -0.240 NA
BRANCH  34  35
HETATM   35  C4  XN3 B 807       9.044  -4.825  16.155  1.00 22.66     0.088 C 
HETATM   36  C7  XN3 B 807       9.271  -5.728  14.980  1.00 23.52     0.025 C 
HETATM   37  C5  XN3 B 807       9.776  -5.467  17.364  1.00 21.20     0.025 C 
HETATM   38  C6  XN3 B 807       9.731  -3.618  15.929  1.00 19.70     0.025 C 
ENDBRANCH  34  35
ENDBRANCH   3  32
BRANCH   5  39
HETATM   39  C31 XN3 B 807       2.237  -6.357  15.862  1.00 34.59     0.273 C 
BRANCH  39  40
HETATM   40  C32 XN3 B 807       2.785  -7.749  16.170  1.00 40.57    -0.009 A 
HETATM   41  C36 XN3 B 807       3.485  -8.508  15.132  1.00 42.79     0.076 A 
HETATM   42  C35 XN3 B 807       4.019  -9.841  15.442  1.00 44.97     0.097 A 
HETATM   43  C34 XN3 B 807       3.824 -10.363  16.761  1.00 45.47     0.097 A 
HETATM   44  O6  XN3 B 807       4.711 -10.844  14.773  1.00 47.06    -0.304 OA
HETATM   45  C37 XN3 B 807       3.134  -9.674  17.873  1.00 44.54     0.078 A 
HETATM   46  O5  XN3 B 807       4.418 -11.636  16.810  1.00 47.50    -0.304 OA
HETATM   47  C33 XN3 B 807       2.627  -8.346  17.497  1.00 41.40    -0.025 A 
HETATM   48  C38 XN3 B 807       5.050 -12.091  15.549  1.00 47.92     0.303 A 
ENDBRANCH  39  40
ENDBRANCH   5  39
TORSDOF 12
