REMARK  10 active torsions:
REMARK  status: ('A' for Active; 'I' for Inactive)
REMARK    1  A    between atoms: C08_8  and  N01_1 
REMARK    2  A    between atoms: C23_23  and  N03_3 
REMARK    3  A    between atoms: C04_4  and  C41_41 
REMARK    4  A    between atoms: C07_7  and  C32_32 
REMARK    5  A    between atoms: C08_8  and  C09_9 
REMARK    6  A    between atoms: C17_17  and  O16_16 
REMARK    7  A    between atoms: C41_41  and  O16_16 
REMARK    8  A    between atoms: C23_23  and  C24_24 
REMARK    9  A    between atoms: C32_32  and  O33_33 
REMARK   10  A    between atoms: C34_34  and  O33_33 
ROOT
HETATM    1  N01 NMB A 501      11.982  21.008   6.401  1.00  15.06    -0.236 N 
HETATM    2  S02 NMB A 501      12.446  19.511   6.947  1.00  12.44     0.327 S 
HETATM    3  N03 NMB A 501      12.781  18.770   5.558  1.00  13.50    -0.254 N 
HETATM    4  C04 NMB A 501      11.578  18.352   4.791  1.00  16.90     0.157 C 
HETATM    5  C05 NMB A 501      11.175  19.404   3.775  1.00  12.70     0.208 C 
HETATM    6  C06 NMB A 501      11.490  20.827   4.180  1.00  12.56     0.208 C 
HETATM    7  C07 NMB A 501      10.897  21.309   5.494  1.00  11.34     0.162 C 
HETATM    8  O15 NMB A 501      11.369  18.799   7.596  1.00  13.56    -0.182 OA
HETATM    9  O30 NMB A 501      11.857  19.183   2.561  1.00  13.24    -0.218 OA
HETATM   10  O31 NMB A 501      11.120  21.656   3.103  1.00  15.08    -0.218 OA
HETATM   11  O40 NMB A 501      13.676  19.664   7.650  1.00  16.60    -0.182 OA
ENDROOT
BRANCH   4  12
HETATM   12  C41 NMB A 501      11.760  16.973   4.132  1.00  18.23     0.174 C 
BRANCH  12  13
HETATM   13  O16 NMB A 501      11.465  15.927   5.089  1.00  20.72    -0.329 OA
BRANCH  13  14
HETATM   14  C17 NMB A 501      10.841  14.794   4.671  1.00  14.47     0.094 A 
HETATM   15  C18 NMB A 501      11.594  13.721   4.149  1.00  11.79     0.024 A 
HETATM   16  C19 NMB A 501      10.953  12.548   3.723  1.00  14.96     0.002 A 
HETATM   17  C20 NMB A 501       9.547  12.447   3.827  1.00  14.23     0.000 A 
HETATM   18  C21 NMB A 501       8.795  13.513   4.349  1.00  12.66     0.002 A 
HETATM   19  C22 NMB A 501       9.446  14.679   4.765  1.00  11.31     0.024 A 
ENDBRANCH  13  14
ENDBRANCH  12  13
ENDBRANCH   4  12
BRANCH   3  20
HETATM   20  C23 NMB A 501      14.119  18.973   4.958  1.00  11.47     0.141 C 
BRANCH  20  21
HETATM   21  C24 NMB A 501      14.717  17.882   4.113  1.00  12.93     0.001 A 
HETATM   22  C25 NMB A 501      14.216  16.558   4.178  1.00  16.94    -0.002 A 
HETATM   23  C26 NMB A 501      14.780  15.534   3.366  1.00  18.28    -0.000 A 
HETATM   24  C27 NMB A 501      15.845  15.836   2.493  1.00  13.74    -0.000 A 
HETATM   25  C28 NMB A 501      16.346  17.155   2.432  1.00  16.62    -0.000 A 
HETATM   26  C29 NMB A 501      15.781  18.170   3.239  1.00  13.68    -0.002 A 
ENDBRANCH  20  21
ENDBRANCH   3  20
BRANCH   1  27
HETATM   27  C08 NMB A 501      12.144  22.023   7.350  1.00  15.66     0.088 C 
BRANCH  27  28
HETATM   28  C09 NMB A 501      11.295  23.174   7.767  1.00  14.71     0.018 A 
HETATM   29  C10 NMB A 501      11.790  24.483   7.741  1.00  12.56     0.002 A 
HETATM   30  C11 NMB A 501      10.981  25.548   8.142  1.00  19.25     0.000 A 
HETATM   31  C12 NMB A 501       9.649  25.304   8.581  1.00  18.30     0.000 A 
HETATM   32  C13 NMB A 501       9.139  23.993   8.617  1.00  14.23     0.000 A 
HETATM   33  C14 NMB A 501       9.968  22.925   8.207  1.00  15.35     0.002 A 
ENDBRANCH  27  28
ENDBRANCH   1  27
BRANCH   7  34
HETATM   34  C32 NMB A 501       9.551  20.789   6.030  1.00  11.25     0.175 C 
BRANCH  34  35
HETATM   35  O33 NMB A 501       9.292  21.562   7.227  1.00  12.26    -0.329 OA
BRANCH  35  36
HETATM   36  C34 NMB A 501       8.424  22.592   7.188  1.00  12.57     0.094 A 
HETATM   37  C35 NMB A 501       8.853  23.910   7.438  1.00  14.00     0.024 A 
HETATM   38  C36 NMB A 501       7.956  24.988   7.406  1.00  14.78     0.002 A 
HETATM   39  C37 NMB A 501       6.605  24.752   7.124  1.00  14.25     0.000 A 
HETATM   40  C38 NMB A 501       6.166  23.441   6.878  1.00  17.66     0.002 A 
HETATM   41  C39 NMB A 501       7.080  22.366   6.908  1.00  14.50     0.024 A 
ENDBRANCH  35  36
ENDBRANCH  34  35
ENDBRANCH   7  34
TORSDOF 10
