REMARK 10 active torsions:
REMARK status: ('A' for Active; 'I' for Inactive)
REMARK 1 A between atoms: CZ1_1 and CZ2_32
REMARK I between atoms: CZ1_1 and NZ1_3
REMARK I between atoms: NZ1_3 and CB5_4
REMARK I between atoms: CB1_8 and CG1_10
REMARK 2 A between atoms: CG1_10 and CG2_19
REMARK I between atoms: CG1_10 and CA_11
REMARK 3 A between atoms: CA4_15 and CD_22
REMARK 4 A between atoms: CD_22 and CD1_23
REMARK 5 A between atoms: CD_22 and CE_25
REMARK 6 A between atoms: CE_25 and CE1_26
REMARK 7 A between atoms: CZ2_32 and CZ3_33
REMARK 8 A between atoms: CZ3_33 and NZ3_34
REMARK I between atoms: NZ3_34 and CZ4_35
REMARK 9 A between atoms: CZ4_35 and OZ5_37
REMARK 10 A between atoms: OZ5_37 and CZ5_38
ROOT
HETATM    1   C1 U02 A 100       1.052  23.761   2.429  1.00 16.00      0.258 C
HETATM    2   O1 U02 A 100       1.119  24.024   3.630  1.00 23.80     -0.270 OA
HETATM    3   N1 U02 A 100       2.032  23.127   1.809  1.00 18.60     -0.212 NA
HETATM    4   C5 U02 A 100       3.144  22.798   2.618  1.00 26.10      0.084 A
HETATM    5   C4 U02 A 100       3.000  21.723   3.489  1.00 39.90      0.019 A
HETATM    6   C3 U02 A 100       4.053  21.316   4.299  1.00 39.00      0.001 A
HETATM    7   C2 U02 A 100       5.269  21.983   4.237  1.00 25.30     -0.004 A
HETATM    8   C1 U02 A 100       5.424  23.075   3.388  1.00 15.10     -0.017 A
HETATM    9  C6B U02 A 100       4.375  23.470   2.543  1.00 18.90      0.015 A
HETATM   10  C1G U02 A 100       6.761  23.816   3.497  1.00 14.30      0.052 C
HETATM   11   CA U02 A 100       7.933  22.907   3.938  1.00 15.90      0.070 A
HETATM   12   C2 U02 A 100       8.385  21.982   2.975  1.00 23.50      0.298 A
HETATM   13   O2 U02 A 100       8.097  22.045   1.806  1.00 32.10     -0.259 OA
HETATM   14   O3 U02 A 100       9.411  21.207   3.268  1.00 22.00     -0.278 OA
HETATM   15   C4 U02 A 100      10.046  21.266   4.457  1.00 23.90      0.083 A
HETATM   16   C5 U02 A 100       9.618  22.118   5.481  1.00 15.40      0.048 A
HETATM   17   C6 U02 A 100       8.545  22.970   5.216  1.00 11.10      0.134 A
HETATM   18   O6 U02 A 100       8.050  23.595   6.322  1.00 7.80      -0.190 OA
ENDROOT
BRANCH 1 19
HETATM   19  C2Z U02 A 100      -0.136  24.178   1.580  1.00 9.40       0.116 C
BRANCH 19 20
HETATM   20  C3Z U02 A 100      -1.470  24.256   2.339  1.00 11.90      0.141 C
BRANCH 20 21
HETATM   21  N3Z U02 A 100      -0.811  21.703   1.525  1.00 23.90     -0.212 NA
HETATM   22  C4Z U02 A 100      -0.797  20.573   2.216  1.00 47.70      0.383 C
HETATM   23  O4Z U02 A 100      -0.109  20.397   3.233  1.00 57.60     -0.236 OA
BRANCH 22 24
HETATM   24  OZ5 U02 A 100      -1.076  19.139   1.166  1.00 57.20     -0.289 OA
BRANCH 24 25
HETATM   25  C5Z U02 A 100      -7.225  29.232   0.317  1.00 49.20      0.103 C
HETATM   26  C6Z U02 A 100      -7.964  30.575   0.420  1.00 43.60      0.030 C
HETATM   27  C7Z U02 A 100      -7.309  28.724  -1.129  1.00 39.90      0.030 C
HETATM   28  C8Z U02 A 100      -7.890  28.198   1.228  1.00 52.80      0.030 C
ENDBRANCH 24 25
ENDBRANCH 22 24
ENDBRANCH 20 21
ENDBRANCH 19 20
ENDBRANCH 1 19
BRANCH 10 29
HETATM   29  C2G U02 A 100       7.019  24.604   2.247  1.00 20.80      0.008 A
HETATM   30  C3G U02 A 100       7.807  24.107   1.059  1.00 24.50      0.001 A
HETATM   31  C4G U02 A 100       8.300  25.300   1.854  1.00 27.30      0.001 A
ENDBRANCH 10 29
BRANCH 15 32
HETATM   32   CD U02 A 100      11.363  20.636   4.620  1.00 22.80      0.050 C
BRANCH 32 33
HETATM   33  C1D U02 A 100      11.910  19.589   5.603  1.00 17.10      0.007 C
HETATM   34  C2D U02 A 100      11.797  20.074   7.066  1.00 8.50       0.000 C
ENDBRANCH 32 33
BRANCH 32 35
HETATM   35   CE U02 A 100      12.358  21.813   4.607  1.00 17.10      0.033 C
BRANCH 35 36
HETATM   36  C1E U02 A 100      11.535  20.550   4.461  1.00 34.10     -0.022 A
HETATM   37  C6E U02 A 100      10.628  20.403   3.426  1.00 57.90     -0.004 A
HETATM   38  C5E U02 A 100       9.871  19.242   3.331  1.00 50.00     -0.000 A
HETATM   39  C4E U02 A 100      10.023  18.222   4.262  1.00 61.60     -0.000 A
HETATM   40  C3E U02 A 100      10.944  18.371   5.291  1.00 65.60     -0.000 A
HETATM   41  C2E U02 A 100      11.703  19.530   5.388  1.00 56.70     -0.004 A
ENDBRANCH 35 36
ENDBRANCH 32 35
ENDBRANCH 15 32
TORSDOF 13
