REMARK 10 active torsions:
REMARK status: ('A' for Active; 'I' for Inactive)
REMARK 1 A between atoms: CZ1_1 and CZ2_32
REMARK I between atoms: CZ1_1 and NZ1_3
REMARK I between atoms: NZ1_3 and CB5_4
REMARK I between atoms: CB1_8 and CG1_10
REMARK 2 A between atoms: CG1_10 and CG2_19
REMARK I between atoms: CG1_10 and CA_11
REMARK 3 A between atoms: CA4_15 and CD_22
REMARK 4 A between atoms: CD_22 and CD1_23
REMARK 5 A between atoms: CD_22 and CE_25
REMARK 6 A between atoms: CE_25 and CE1_26
REMARK 7 A between atoms: CZ2_32 and CZ3_33
REMARK 8 A between atoms: CZ3_33 and NZ3_34
REMARK I between atoms: NZ3_34 and CZ4_35
REMARK 9 A between atoms: CZ4_35 and OZ5_37
REMARK 10 A between atoms: OZ5_37 and CZ5_38
ROOT
HETATM    1   C1 U02 A 100       5.407  28.394   3.002  1.00 16.00      0.258 C
HETATM    2   O1 U02 A 100       5.528  28.717   4.184  1.00 23.80     -0.270 OA
HETATM    3   N1 U02 A 100       6.349  27.709   2.377  1.00 18.60     -0.212 NA
HETATM    4   C5 U02 A 100       7.487  27.399   3.157  1.00 26.10      0.084 A
HETATM    5   C4 U02 A 100       7.358  26.374   4.088  1.00 39.90      0.019 A
HETATM    6   C3 U02 A 100       8.436  25.987   4.876  1.00 39.00      0.001 A
HETATM    7   C2 U02 A 100       9.661  26.625   4.731  1.00 25.30     -0.004 A
HETATM    8   C1 U02 A 100       9.801  27.669   3.820  1.00 15.10     -0.017 A
HETATM    9  C6B U02 A 100       8.725  28.041   2.998  1.00 18.90      0.015 A
HETATM   10  C1G U02 A 100      11.155  28.386   3.836  1.00 14.30      0.052 C
HETATM   11   CA U02 A 100      12.327  27.477   4.277  1.00 15.90      0.070 A
HETATM   12   C2 U02 A 100      12.722  26.495   3.347  1.00 23.50      0.298 A
HETATM   13   O2 U02 A 100      12.387  26.503   2.189  1.00 32.10     -0.259 OA
HETATM   14   O3 U02 A 100      13.744  25.715   3.639  1.00 22.00     -0.278 OA
HETATM   15   C4 U02 A 100      14.428  25.822   4.797  1.00 23.90      0.083 A
HETATM   16   C5 U02 A 100      14.059  26.734   5.792  1.00 15.40      0.048 A
HETATM   17   C6 U02 A 100      12.992  27.594   5.524  1.00 11.10      0.134 A
HETATM   18   O6 U02 A 100      12.554  28.285   6.616  1.00 7.80      -0.190 OA
ENDROOT
BRANCH 1 19
HETATM   19  C2Z U02 A 100       4.193  28.791   2.180  1.00 9.40       0.116 C
BRANCH 19 20
HETATM   20  C3Z U02 A 100       3.604  29.970   1.388  1.00 11.90      0.141 C
BRANCH 20 21
HETATM   21  N3Z U02 A 100       3.393  29.335   2.010  1.00 23.90     -0.212 NA
HETATM   22  C4Z U02 A 100       2.927  29.149   3.236  1.00 47.70      0.383 C
HETATM   23  O4Z U02 A 100       3.606  28.694   4.169  1.00 57.60     -0.236 OA
BRANCH 22 24
HETATM   24  OZ5 U02 A 100       2.667  30.790  -4.712  1.00 57.20     -0.289 OA
BRANCH 24 25
HETATM   25  C5Z U02 A 100       1.768  33.956  -5.172  1.00 49.20      0.103 C
HETATM   26  C6Z U02 A 100       1.311  33.228  -6.446  1.00 43.60      0.030 C
HETATM   27  C7Z U02 A 100       0.563  34.670  -4.544  1.00 39.90      0.030 C
HETATM   28  C8Z U02 A 100       2.821  35.009  -5.521  1.00 52.80      0.030 C
ENDBRANCH 24 25
ENDBRANCH 22 24
ENDBRANCH 20 21
ENDBRANCH 19 20
ENDBRANCH 1 19
BRANCH 10 29
HETATM   29  C2G U02 A 100      11.375  29.103   2.537  1.00 20.80      0.008 A
HETATM   30  C3G U02 A 100      10.757  28.711   1.217  1.00 24.50      0.001 A
HETATM   31  C4G U02 A 100      12.262  28.669   1.394  1.00 27.30      0.001 A
ENDBRANCH 10 29
BRANCH 15 32
HETATM   32   CD U02 A 100      15.739  25.174   4.940  1.00 22.80      0.050 C
BRANCH 32 33
HETATM   33  C1D U02 A 100      15.568  25.727   6.364  1.00 17.10      0.007 C
HETATM   34  C2D U02 A 100      14.342  25.106   7.069  1.00 8.50       0.000 C
ENDBRANCH 32 33
BRANCH 32 35
HETATM   35   CE U02 A 100      16.755  26.328   4.826  1.00 17.10      0.033 C
BRANCH 35 36
HETATM   36  C1E U02 A 100      16.012  26.833   6.046  1.00 34.10     -0.022 A
HETATM   37  C6E U02 A 100      14.747  26.367   6.357  1.00 57.90     -0.004 A
HETATM   38  C5E U02 A 100      14.081  26.866   7.470  1.00 50.00     -0.000 A
HETATM   39  C4E U02 A 100      14.679  27.824   8.279  1.00 61.60     -0.000 A
HETATM   40  C3E U02 A 100      15.954  28.279   7.967  1.00 65.60     -0.000 A
HETATM   41  C2E U02 A 100      16.622  27.781   6.856  1.00 56.70     -0.004 A
ENDBRANCH 35 36
ENDBRANCH 32 35
ENDBRANCH 15 32
TORSDOF 13
