REMARK 10 active torsions:
REMARK status: ('A' for Active; 'I' for Inactive)
REMARK 1 A between atoms: CZ1_1 and CZ2_32
REMARK I between atoms: CZ1_1 and NZ1_3
REMARK I between atoms: NZ1_3 and CB5_4
REMARK I between atoms: CB1_8 and CG1_10
REMARK 2 A between atoms: CG1_10 and CG2_19
REMARK I between atoms: CG1_10 and CA_11
REMARK 3 A between atoms: CA4_15 and CD_22
REMARK 4 A between atoms: CD_22 and CD1_23
REMARK 5 A between atoms: CD_22 and CE_25
REMARK 6 A between atoms: CE_25 and CE1_26
REMARK 7 A between atoms: CZ2_32 and CZ3_33
REMARK 8 A between atoms: CZ3_33 and NZ3_34
REMARK I between atoms: NZ3_34 and CZ4_35
REMARK 9 A between atoms: CZ4_35 and OZ5_37
REMARK 10 A between atoms: OZ5_37 and CZ5_38
ROOT
HETATM    1   C1 U02 A 100      11.866  26.695   7.419  1.00 16.00      0.258 C
HETATM    2   O1 U02 A 100      12.735  27.530   7.669  1.00 23.80     -0.270 OA
HETATM    3   N1 U02 A 100      12.163  25.414   7.280  1.00 18.60     -0.212 NA
HETATM    4   C5 U02 A 100      13.533  25.095   7.424  1.00 26.10      0.084 A
HETATM    5   C4 U02 A 100      14.049  25.075   8.715  1.00 39.90      0.019 A
HETATM    6   C3 U02 A 100      15.379  24.743   8.947  1.00 39.00      0.001 A
HETATM    7   C2 U02 A 100      16.205  24.420   7.879  1.00 25.30     -0.004 A
HETATM    8   C1 U02 A 100      15.712  24.458   6.578  1.00 15.10     -0.017 A
HETATM    9  C6B U02 A 100      14.361  24.759   6.341  1.00 18.90      0.015 A
HETATM   10  C1G U02 A 100      16.742  24.213   5.471  1.00 14.30      0.052 C
HETATM   11   CA U02 A 100      17.914  23.304   5.912  1.00 15.90      0.070 A
HETATM   12   C2 U02 A 100      17.599  21.941   6.086  1.00 23.50      0.298 A
HETATM   13   O2 U02 A 100      16.584  21.436   5.675  1.00 32.10     -0.259 OA
HETATM   14   O3 U02 A 100      18.560  21.102   6.418  1.00 22.00     -0.278 OA
HETATM   15   C4 U02 A 100      19.837  21.499   6.596  1.00 23.90      0.083 A
HETATM   16   C5 U02 A 100      20.214  22.842   6.496  1.00 15.40      0.048 A
HETATM   17   C6 U02 A 100      19.236  23.769   6.132  1.00 11.10      0.134 A
HETATM   18   O6 U02 A 100      19.625  25.068   6.278  1.00 7.80      -0.190 OA
ENDROOT
BRANCH 1 19
HETATM   19  C2Z U02 A 100      10.411  27.083   7.218  1.00 9.40       0.116 C
BRANCH 19 20
HETATM   20  C3Z U02 A 100       9.847  26.680   5.846  1.00 11.90      0.141 C
BRANCH 20 21
HETATM   21  N3Z U02 A 100      10.519  25.672   5.050  1.00 23.90     -0.212 NA
HETATM   22  C4Z U02 A 100      11.766  25.843   4.639  1.00 47.70      0.383 C
HETATM   23  O4Z U02 A 100      12.496  26.771   5.019  1.00 57.60     -0.236 OA
BRANCH 22 24
HETATM   24  OZ5 U02 A 100      11.404  24.386   2.832  1.00 57.20     -0.289 OA
BRANCH 24 25
HETATM   25  C5Z U02 A 100      11.970  23.850   2.401  1.00 49.20      0.103 C
HETATM   26  C6Z U02 A 100      11.952  23.673   0.876  1.00 43.60      0.030 C
HETATM   27  C7Z U02 A 100      13.259  24.580   2.806  1.00 39.90      0.030 C
HETATM   28  C8Z U02 A 100      11.959  22.482   3.086  1.00 52.80      0.030 C
ENDBRANCH 24 25
ENDBRANCH 22 24
ENDBRANCH 20 21
ENDBRANCH 19 20
ENDBRANCH 1 19
BRANCH 10 29
HETATM   29  C2G U02 A 100      16.054  23.777   4.211  1.00 20.80      0.008 A
HETATM   30  C3G U02 A 100      14.748  23.022   4.157  1.00 24.50      0.001 A
HETATM   31  C4G U02 A 100      16.017  22.385   3.626  1.00 27.30      0.001 A
ENDBRANCH 10 29
BRANCH 15 32
HETATM   32   CD U02 A 100      20.918  20.504   6.636  1.00 22.80      0.050 C
BRANCH 32 33
HETATM   33  C1D U02 A 100      22.342  20.808   7.128  1.00 17.10      0.007 C
HETATM   34  C2D U02 A 100      23.403  20.073   6.278  1.00 8.50       0.000 C
ENDBRANCH 32 33
BRANCH 32 35
HETATM   35   CE U02 A 100      21.608  20.628   5.263  1.00 17.10      0.033 C
BRANCH 35 36
HETATM   36  C1E U02 A 100      21.207  21.794   4.383  1.00 34.10     -0.022 A
HETATM   37  C6E U02 A 100      20.254  22.708   4.797  1.00 57.90     -0.004 A
HETATM   38  C5E U02 A 100      19.890  23.754   3.958  1.00 50.00     -0.000 A
HETATM   39  C4E U02 A 100      20.482  23.896   2.710  1.00 61.60     -0.000 A
HETATM   40  C3E U02 A 100      21.446  22.982   2.305  1.00 65.60     -0.000 A
HETATM   41  C2E U02 A 100      21.813  21.935   3.142  1.00 56.70     -0.004 A
ENDBRANCH 35 36
ENDBRANCH 32 35
ENDBRANCH 15 32
TORSDOF 13
