REMARK 10 active torsions:
REMARK status: ('A' for Active; 'I' for Inactive)
REMARK 1 A between atoms: CZ1_1 and CZ2_32
REMARK I between atoms: CZ1_1 and NZ1_3
REMARK I between atoms: NZ1_3 and CB5_4
REMARK I between atoms: CB1_8 and CG1_10
REMARK 2 A between atoms: CG1_10 and CG2_19
REMARK I between atoms: CG1_10 and CA_11
REMARK 3 A between atoms: CA4_15 and CD_22
REMARK 4 A between atoms: CD_22 and CD1_23
REMARK 5 A between atoms: CD_22 and CE_25
REMARK 6 A between atoms: CE_25 and CE1_26
REMARK 7 A between atoms: CZ2_32 and CZ3_33
REMARK 8 A between atoms: CZ3_33 and NZ3_34
REMARK I between atoms: NZ3_34 and CZ4_35
REMARK 9 A between atoms: CZ4_35 and OZ5_37
REMARK 10 A between atoms: OZ5_37 and CZ5_38
ROOT
HETATM    1   C1 U02 A 100       2.187  27.255   3.403  1.00 16.00      0.258 C
HETATM    2   O1 U02 A 100       1.790  26.871   4.504  1.00 23.80     -0.270 OA
HETATM    3   N1 U02 A 100       3.449  27.109   3.038  1.00 18.60     -0.212 NA
HETATM    4   C5 U02 A 100       4.288  26.503   4.002  1.00 26.10      0.084 A
HETATM    5   C4 U02 A 100       4.175  25.127   4.166  1.00 39.90      0.019 A
HETATM    6   C3 U02 A 100       4.983  24.448   5.072  1.00 39.00      0.001 A
HETATM    7   C2 U02 A 100       5.920  25.149   5.819  1.00 25.30     -0.004 A
HETATM    8   C1 U02 A 100       6.030  26.530   5.685  1.00 15.10     -0.017 A
HETATM    9  C6B U02 A 100       5.241  27.215   4.747  1.00 18.90      0.015 A
HETATM   10  C1G U02 A 100       7.001  27.215   6.651  1.00 14.30      0.052 C
HETATM   11   CA U02 A 100       8.173  26.306   7.092  1.00 15.90      0.070 A
HETATM   12   C2 U02 A 100       9.148  26.044   6.108  1.00 23.50      0.298 A
HETATM   13   O2 U02 A 100       9.243  26.672   5.083  1.00 32.10     -0.259 OA
HETATM   14   O3 U02 A 100      10.197  25.313   6.428  1.00 22.00     -0.278 OA
HETATM   15   C4 U02 A 100      10.375  24.807   7.666  1.00 23.90      0.083 A
HETATM   16   C5 U02 A 100       9.424  24.977   8.678  1.00 15.40      0.048 A
HETATM   17   C6 U02 A 100       8.301  25.757   8.393  1.00 11.10      0.134 A
HETATM   18   O6 U02 A 100       7.325  25.685   9.343  1.00 7.80      -0.190 OA
ENDROOT
BRANCH 1 19
HETATM   19  C2Z U02 A 100       1.267  27.951   2.415  1.00 9.40       0.116 C
BRANCH 19 20
HETATM   20  C3Z U02 A 100       2.325  27.133   3.173  1.00 11.90      0.141 C
BRANCH 20 21
HETATM   21  N3Z U02 A 100       3.408  31.842   0.254  1.00 23.90     -0.212 NA
HETATM   22  C4Z U02 A 100       3.723  32.774  -0.634  1.00 47.70      0.383 C
HETATM   23  O4Z U02 A 100       2.965  33.143  -1.543  1.00 57.60     -0.236 OA
BRANCH 22 24
HETATM   24  OZ5 U02 A 100       3.182  26.972   4.223  1.00 57.20     -0.289 OA
BRANCH 24 25
HETATM   25  C5Z U02 A 100      -0.580  29.195   0.436  1.00 49.20      0.103 C
HETATM   26  C6Z U02 A 100      -0.060  27.750   0.467  1.00 43.60      0.030 C
HETATM   27  C7Z U02 A 100      -2.112  29.178   0.536  1.00 39.90      0.030 C
HETATM   28  C8Z U02 A 100      -0.193  29.862  -0.886  1.00 52.80      0.030 C
ENDBRANCH 24 25
ENDBRANCH 22 24
ENDBRANCH 20 21
ENDBRANCH 19 20
ENDBRANCH 1 19
BRANCH 10 29
HETATM   29  C2G U02 A 100       7.417  28.549   6.106  1.00 20.80      0.008 A
HETATM   30  C3G U02 A 100       7.915  28.793   4.702  1.00 24.50      0.001 A
HETATM   31  C4G U02 A 100       8.827  29.047   5.886  1.00 27.30      0.001 A
ENDBRANCH 10 29
BRANCH 15 32
HETATM   32   CD U02 A 100      11.691  24.290   8.068  1.00 22.80      0.050 C
BRANCH 32 33
HETATM   33  C1D U02 A 100      12.725  25.131   7.303  1.00 17.10      0.007 C
HETATM   34  C2D U02 A 100      12.635  26.625   7.687  1.00 8.50       0.000 C
ENDBRANCH 32 33
BRANCH 32 35
HETATM   35   CE U02 A 100      12.271  25.384   8.986  1.00 17.10      0.033 C
BRANCH 35 36
HETATM   36  C1E U02 A 100      12.758  24.161   8.236  1.00 34.10     -0.022 A
HETATM   37  C6E U02 A 100      13.203  24.254   6.929  1.00 57.90     -0.004 A
HETATM   38  C5E U02 A 100      13.621  23.111   6.259  1.00 50.00     -0.000 A
HETATM   39  C4E U02 A 100      13.605  21.875   6.893  1.00 61.60     -0.000 A
HETATM   40  C3E U02 A 100      13.168  21.791   8.209  1.00 65.60     -0.000 A
HETATM   41  C2E U02 A 100      12.749  22.932   8.882  1.00 56.70     -0.004 A
ENDBRANCH 35 36
ENDBRANCH 32 35
ENDBRANCH 15 32
TORSDOF 13
