REMARK  10 active torsions:
REMARK  status: ('A' for Active; 'I' for Inactive)
REMARK       I    between atoms: C20_1  and  C28_28 
REMARK    1  A    between atoms: C20_1  and  C21_21 
REMARK       I    between atoms: C20_1  and  C19_2 
REMARK       I    between atoms: C19_2  and  C17_3 
REMARK       I    between atoms: C17_3  and  C9_5 
REMARK    2  A    between atoms: C9_5  and  C10_6 
REMARK    3  A    between atoms: C9_5  and  N8_13 
REMARK    4  A    between atoms: C10_6  and  C11_7 
REMARK       I    between atoms: N8_13  and  C6_14 
REMARK    5  A    between atoms: C6_14  and  O5_16 
REMARK    6  A    between atoms: O5_16  and  C1_17 
REMARK    7  A    between atoms: C21_21  and  C22_22 
REMARK       I    between atoms: C28_28  and  N30_30 
REMARK    8  A    between atoms: N30_30  and  C31_31 
REMARK    9  A    between atoms: C31_31  and  C32_32 
REMARK   10  A    between atoms: C31_31  and  C35_35 
ROOT
HETATM    1  C20 IM1 B 400      -8.231  17.699  26.949  0.92 10.94     0.088 C 
HETATM    2  C19 IM1 B 400      -8.968  17.068  28.079  0.92 10.94     0.045 C 
HETATM    3  C17 IM1 B 400     -10.388  16.807  27.726  0.92 10.94     0.175 C 
HETATM    4  O18 IM1 B 400     -11.081  18.046  28.008  0.92 10.94    -0.221 OA
HETATM    5  C9  IM1 B 400     -10.986  15.603  28.506  0.92 10.94     0.143 C 
HETATM    6  C28 IM1 B 400      -7.995  16.703  25.802  0.92 10.94     0.252 C 
HETATM    7  O29 IM1 B 400      -7.843  15.489  25.973  0.92 10.94    -0.271 OA
HETATM    8  N30 IM1 B 400      -7.959  17.259  24.602  0.92 10.94    -0.232 NA
ENDROOT
BRANCH   1   9
HETATM    9  C21 IM1 B 400      -6.948  18.237  27.606  0.92 10.94     0.036 C 
BRANCH   9  10
HETATM   10  C22 IM1 B 400      -5.641  18.205  26.819  0.92 10.94    -0.022 A 
HETATM   11  C27 IM1 B 400      -4.704  17.211  27.114  0.92 10.94    -0.004 A 
HETATM   12  C26 IM1 B 400      -3.500  17.168  26.420  0.92 10.94    -0.000 A 
HETATM   13  C25 IM1 B 400      -3.238  18.110  25.437  0.92 10.94    -0.000 A 
HETATM   14  C24 IM1 B 400      -4.170  19.098  25.143  0.92 10.94    -0.000 A 
HETATM   15  C23 IM1 B 400      -5.374  19.155  25.829  0.92 10.94    -0.004 A 
ENDBRANCH   9  10
ENDBRANCH   1   9
BRANCH   8  16
HETATM   16  C31 IM1 B 400      -7.721  16.521  23.369  0.92 10.94     0.164 C 
BRANCH  16  17
HETATM   17  C32 IM1 B 400      -9.026  16.230  22.597  0.92 10.94     0.030 C 
HETATM   18  C34 IM1 B 400      -9.626  14.938  23.121  0.92 10.94     0.003 C 
HETATM   19  C33 IM1 B 400      -8.765  15.923  21.139  0.92 10.94     0.003 C 
ENDBRANCH  16  17
BRANCH  16  20
HETATM   20  C35 IM1 B 400      -6.826  17.483  22.593  0.92 10.94     0.162 A 
HETATM   21  N39 IM1 B 400      -5.865  16.957  21.881  0.92 10.94    -0.226 NA
HETATM   22  C38 IM1 B 400      -5.142  18.018  21.392  0.92 10.94     0.121 A 
HETATM   23  C37 IM1 B 400      -5.766  19.167  21.871  0.92 10.94     0.121 A 
HETATM   24  N36 IM1 B 400      -6.849  18.805  22.639  0.92 10.94    -0.226 NA
ENDBRANCH  16  20
ENDBRANCH   8  16
BRANCH   5  25
HETATM   25  C10 IM1 B 400     -12.344  15.223  27.924  0.92 10.94     0.053 C 
BRANCH  25  26
HETATM   26  C11 IM1 B 400     -12.815  13.968  28.610  0.92 10.94    -0.020 A 
HETATM   27  C12 IM1 B 400     -12.331  12.733  28.190  0.92 10.94    -0.004 A 
HETATM   28  C13 IM1 B 400     -12.699  11.586  28.886  0.92 10.94    -0.000 A 
HETATM   29  C14 IM1 B 400     -13.538  11.683  29.992  0.92 10.94    -0.000 A 
HETATM   30  C15 IM1 B 400     -14.030  12.921  30.411  0.92 10.94    -0.000 A 
HETATM   31  C16 IM1 B 400     -13.669  14.072  29.715  0.92 10.94    -0.004 A 
ENDBRANCH  25  26
ENDBRANCH   5  25
BRANCH   5  32
HETATM   32  N8  IM1 B 400     -11.155  15.798  29.944  0.92 10.94    -0.211 NA
HETATM   33  C6  IM1 B 400     -10.292  15.365  30.858  0.92 10.94     0.383 C 
HETATM   34  O7  IM1 B 400      -9.279  14.763  30.514  0.92 10.94    -0.236 OA
BRANCH  33  35
HETATM   35  O5  IM1 B 400     -10.593  15.635  32.200  0.92 10.94    -0.289 OA
BRANCH  35  36
HETATM   36  C1  IM1 B 400      -9.807  15.322  33.316  0.92 10.94     0.103 C 
HETATM   37  C2  IM1 B 400      -9.610  13.820  33.442  0.92 10.94     0.030 C 
HETATM   38  C3  IM1 B 400      -8.470  16.060  33.352  0.92 10.94     0.030 C 
HETATM   39  C4  IM1 B 400     -10.614  15.729  34.536  0.92 10.94     0.030 C 
ENDBRANCH  35  36
ENDBRANCH  33  35
ENDBRANCH   5  32
TORSDOF 14
