REMARK 10 active torsions:
REMARK status: ('A' for Active; 'I' for Inactive)
REMARK 1 A between atoms: CZ1_1 and CZ2_32
REMARK I between atoms: CZ1_1 and NZ1_3
REMARK I between atoms: NZ1_3 and CB5_4
REMARK I between atoms: CB1_8 and CG1_10
REMARK 2 A between atoms: CG1_10 and CG2_19
REMARK I between atoms: CG1_10 and CA_11
REMARK 3 A between atoms: CA4_15 and CD_22
REMARK 4 A between atoms: CD_22 and CD1_23
REMARK 5 A between atoms: CD_22 and CE_25
REMARK 6 A between atoms: CE_25 and CE1_26
REMARK 7 A between atoms: CZ2_32 and CZ3_33
REMARK 8 A between atoms: CZ3_33 and NZ3_34
REMARK I between atoms: NZ3_34 and CZ4_35
REMARK 9 A between atoms: CZ4_35 and OZ5_37
REMARK 10 A between atoms: OZ5_37 and CZ5_38
ROOT
HETATM    1   C1 U02 A 100       2.364  28.021   6.892  1.00 16.00      0.258 C
HETATM    2   O1 U02 A 100       3.064  28.820   7.514  1.00 23.80     -0.270 OA
HETATM    3   N1 U02 A 100       2.835  26.846   6.509  1.00 18.60     -0.212 NA
HETATM    4   C5 U02 A 100       4.184  26.597   6.854  1.00 26.10      0.084 A
HETATM    5   C4 U02 A 100       4.450  26.273   8.180  1.00 39.90      0.019 A
HETATM    6   C3 U02 A 100       5.745  25.986   8.597  1.00 39.00      0.001 A
HETATM    7   C2 U02 A 100       6.787  26.014   7.680  1.00 25.30     -0.004 A
HETATM    8   C1 U02 A 100       6.542  26.359   6.354  1.00 15.10     -0.017 A
HETATM    9  C6B U02 A 100       5.231  26.617   5.920  1.00 18.90      0.015 A
HETATM   10  C1G U02 A 100       7.781  26.487   5.462  1.00 14.30      0.052 C
HETATM   11   CA U02 A 100       8.953  25.578   5.903  1.00 15.90      0.070 A
HETATM   12   C2 U02 A 100       8.778  24.199   5.669  1.00 23.50      0.298 A
HETATM   13   O2 U02 A 100       7.926  23.751   4.944  1.00 32.10     -0.259 OA
HETATM   14   O3 U02 A 100       9.756  23.371   5.979  1.00 22.00     -0.278 OA
HETATM   15   C4 U02 A 100      10.921  23.796   6.512  1.00 23.90      0.083 A
HETATM   16   C5 U02 A 100      11.144  25.141   6.825  1.00 15.40      0.048 A
HETATM   17   C6 U02 A 100      10.144  26.060   6.501  1.00 11.10      0.134 A
HETATM   18   O6 U02 A 100      10.339  27.298   7.038  1.00 7.80      -0.190 OA
ENDROOT
BRANCH 1 19
HETATM   19  C2Z U02 A 100       0.935  28.345   6.491  1.00 9.40       0.116 C
BRANCH 19 20
HETATM   20  C3Z U02 A 100       1.700  28.605   5.183  1.00 11.90      0.141 C
BRANCH 20 21
HETATM   21  N3Z U02 A 100       1.098  28.393   3.441  1.00 23.90     -0.212 NA
HETATM   22  C4Z U02 A 100       1.856  28.784   2.429  1.00 47.70      0.383 C
HETATM   23  O4Z U02 A 100       2.522  29.831   2.431  1.00 57.60     -0.236 OA
BRANCH 22 24
HETATM   24  OZ5 U02 A 100       1.755  29.796   2.352  1.00 57.20     -0.289 OA
BRANCH 24 25
HETATM   25  C5Z U02 A 100       3.975  30.645   2.116  1.00 49.20      0.103 C
HETATM   26  C6Z U02 A 100       4.000  32.071   1.547  1.00 43.60      0.030 C
HETATM   27  C7Z U02 A 100       4.795  30.609   3.413  1.00 39.90      0.030 C
HETATM   28  C8Z U02 A 100       4.611  29.673   1.119  1.00 52.80      0.030 C
ENDBRANCH 24 25
ENDBRANCH 22 24
ENDBRANCH 20 21
ENDBRANCH 19 20
ENDBRANCH 1 19
BRANCH 10 29
HETATM   29  C2G U02 A 100       7.394  26.352   4.019  1.00 20.80      0.008 A
HETATM   30  C3G U02 A 100       6.227  27.052   3.366  1.00 24.50      0.001 A
HETATM   31  C4G U02 A 100       6.255  25.538   3.451  1.00 27.30      0.001 A
ENDBRANCH 10 29
BRANCH 15 32
HETATM   32   CD U02 A 100      12.088  22.903   6.534  1.00 22.80      0.050 C
BRANCH 32 33
HETATM   33  C1D U02 A 100      12.069  23.925   5.386  1.00 17.10      0.007 C
HETATM   34  C2D U02 A 100      10.759  23.835   4.571  1.00 8.50       0.000 C
ENDBRANCH 32 33
BRANCH 32 35
HETATM   35   CE U02 A 100      13.000  23.432   5.409  1.00 17.10      0.033 C
BRANCH 35 36
HETATM   36  C1E U02 A 100      14.032  23.589   6.506  1.00 34.10     -0.022 A
HETATM   37  C6E U02 A 100      13.975  22.822   7.657  1.00 57.90     -0.004 A
HETATM   38  C5E U02 A 100      14.923  23.004   8.656  1.00 50.00     -0.000 A
HETATM   39  C4E U02 A 100      15.934  23.946   8.507  1.00 61.60     -0.000 A
HETATM   40  C3E U02 A 100      15.991  24.704   7.345  1.00 65.60     -0.000 A
HETATM   41  C2E U02 A 100      15.046  24.523   6.343  1.00 56.70     -0.004 A
ENDBRANCH 35 36
ENDBRANCH 32 35
ENDBRANCH 15 32
TORSDOF 13
