REMARK 10 active torsions:
REMARK status: ('A' for Active; 'I' for Inactive)
REMARK 1 A between atoms: CZ1_1 and CZ2_32
REMARK I between atoms: CZ1_1 and NZ1_3
REMARK I between atoms: NZ1_3 and CB5_4
REMARK I between atoms: CB1_8 and CG1_10
REMARK 2 A between atoms: CG1_10 and CG2_19
REMARK I between atoms: CG1_10 and CA_11
REMARK 3 A between atoms: CA4_15 and CD_22
REMARK 4 A between atoms: CD_22 and CD1_23
REMARK 5 A between atoms: CD_22 and CE_25
REMARK 6 A between atoms: CE_25 and CE1_26
REMARK 7 A between atoms: CZ2_32 and CZ3_33
REMARK 8 A between atoms: CZ3_33 and NZ3_34
REMARK I between atoms: NZ3_34 and CZ4_35
REMARK 9 A between atoms: CZ4_35 and OZ5_37
REMARK 10 A between atoms: OZ5_37 and CZ5_38
ROOT
HETATM    1   C1 U02 A 100       5.689  32.990   3.437  1.00 16.00      0.258 C
HETATM    2   O1 U02 A 100       6.218  32.740   2.354  1.00 23.80     -0.270 OA
HETATM    3   N1 U02 A 100       5.974  32.287   4.519  1.00 18.60     -0.212 NA
HETATM    4   C5 U02 A 100       6.906  31.239   4.330  1.00 26.10      0.084 A
HETATM    5   C4 U02 A 100       8.244  31.595   4.206  1.00 39.90      0.019 A
HETATM    6   C3 U02 A 100       9.228  30.625   4.045  1.00 39.00      0.001 A
HETATM    7   C2 U02 A 100       8.874  29.283   4.013  1.00 25.30     -0.004 A
HETATM    8   C1 U02 A 100       7.536  28.910   4.111  1.00 15.10     -0.017 A
HETATM    9  C6B U02 A 100       6.543  29.883   4.308  1.00 18.90      0.015 A
HETATM   10  C1G U02 A 100       7.248  27.416   3.932  1.00 14.30      0.052 C
HETATM   11   CA U02 A 100       8.420  26.507   4.373  1.00 15.90      0.070 A
HETATM   12   C2 U02 A 100       8.638  26.422   5.763  1.00 23.50      0.298 A
HETATM   13   O2 U02 A 100       7.837  26.790   6.585  1.00 32.10     -0.259 OA
HETATM   14   O3 U02 A 100       9.592  25.630   6.211  1.00 22.00     -0.278 OA
HETATM   15   C4 U02 A 100      10.369  24.895   5.388  1.00 23.90      0.083 A
HETATM   16   C5 U02 A 100      10.249  24.972   3.996  1.00 15.40      0.048 A
HETATM   17   C6 U02 A 100       9.243  25.785   3.471  1.00 11.10      0.134 A
HETATM   18   O6 U02 A 100       9.338  25.981   2.125  1.00 7.80      -0.190 OA
ENDROOT
BRANCH 1 19
HETATM   19  C2Z U02 A 100       4.652  34.088   3.592  1.00 9.40       0.116 C
BRANCH 19 20
HETATM   20  C3Z U02 A 100       5.482  34.937   4.568  1.00 11.90      0.141 C
BRANCH 20 21
HETATM   21  N3Z U02 A 100       5.216  36.692   2.596  1.00 23.90     -0.212 NA
HETATM   22  C4Z U02 A 100       5.623  37.866   3.054  1.00 47.70      0.383 C
HETATM   23  O4Z U02 A 100       5.883  38.087   4.246  1.00 57.60     -0.236 OA
BRANCH 22 24
HETATM   24  OZ5 U02 A 100      -1.817  38.900   6.244  1.00 57.20     -0.289 OA
BRANCH 24 25
HETATM   25  C5Z U02 A 100      -3.364  30.713  -5.799  1.00 49.20      0.103 C
HETATM   26  C6Z U02 A 100      -4.407  29.707  -6.310  1.00 43.60      0.030 C
HETATM   27  C7Z U02 A 100      -4.076  32.016  -5.408  1.00 39.90      0.030 C
HETATM   28  C8Z U02 A 100      -2.358  31.031  -6.907  1.00 52.80      0.030 C
ENDBRANCH 24 25
ENDBRANCH 22 24
ENDBRANCH 20 21
ENDBRANCH 19 20
ENDBRANCH 1 19
BRANCH 10 29
HETATM   29  C2G U02 A 100       5.924  27.068   4.544  1.00 20.80      0.008 A
HETATM   30  C3G U02 A 100       5.084  25.872   4.165  1.00 24.50      0.001 A
HETATM   31  C4G U02 A 100       4.555  27.274   3.938  1.00 27.30      0.001 A
ENDBRANCH 10 29
BRANCH 15 32
HETATM   32   CD U02 A 100      11.180  23.796   5.928  1.00 22.80      0.050 C
BRANCH 32 33
HETATM   33  C1D U02 A 100      10.213  22.610   6.070  1.00 17.10      0.007 C
HETATM   34  C2D U02 A 100       8.745  23.084   6.152  1.00 8.50       0.000 C
ENDBRANCH 32 33
BRANCH 32 35
HETATM   35   CE U02 A 100      10.421  22.518   5.518  1.00 17.10      0.033 C
BRANCH 35 36
HETATM   36  C1E U02 A 100      10.054  23.324   6.747  1.00 34.10     -0.022 A
HETATM   37  C6E U02 A 100       9.013  24.235   6.721  1.00 57.90     -0.004 A
HETATM   38  C5E U02 A 100       8.714  24.977   7.858  1.00 50.00     -0.000 A
HETATM   39  C4E U02 A 100       9.448  24.805   9.025  1.00 61.60     -0.000 A
HETATM   40  C3E U02 A 100      10.485  23.881   9.048  1.00 65.60     -0.000 A
HETATM   41  C2E U02 A 100      10.785  23.137   7.913  1.00 56.70     -0.004 A
ENDBRANCH 35 36
ENDBRANCH 32 35
ENDBRANCH 15 32
TORSDOF 13
