REMARK 10 active torsions:
REMARK status: ('A' for Active; 'I' for Inactive)
REMARK 1 A between atoms: CZ1_1 and CZ2_32
REMARK I between atoms: CZ1_1 and NZ1_3
REMARK I between atoms: NZ1_3 and CB5_4
REMARK I between atoms: CB1_8 and CG1_10
REMARK 2 A between atoms: CG1_10 and CG2_19
REMARK I between atoms: CG1_10 and CA_11
REMARK 3 A between atoms: CA4_15 and CD_22
REMARK 4 A between atoms: CD_22 and CD1_23
REMARK 5 A between atoms: CD_22 and CE_25
REMARK 6 A between atoms: CE_25 and CE1_26
REMARK 7 A between atoms: CZ2_32 and CZ3_33
REMARK 8 A between atoms: CZ3_33 and NZ3_34
REMARK I between atoms: NZ3_34 and CZ4_35
REMARK 9 A between atoms: CZ4_35 and OZ5_37
REMARK 10 A between atoms: OZ5_37 and CZ5_38
ROOT
HETATM    1   C1 U02 A 100       1.005  27.848   5.596  1.00 16.00      0.258 C
HETATM    2   O1 U02 A 100       1.854  28.685   5.901  1.00 23.80     -0.270 OA
HETATM    3   N1 U02 A 100       1.324  26.577   5.418  1.00 18.60     -0.212 NA
HETATM    4   C5 U02 A 100       2.694  26.271   5.590  1.00 26.10      0.084 A
HETATM    5   C4 U02 A 100       3.173  26.210   6.894  1.00 39.90      0.019 A
HETATM    6   C3 U02 A 100       4.500  25.888   7.152  1.00 39.00      0.001 A
HETATM    7   C2 U02 A 100       5.362  25.616   6.097  1.00 25.30     -0.004 A
HETATM    8   C1 U02 A 100       4.905  25.695   4.785  1.00 15.10     -0.017 A
HETATM    9  C6B U02 A 100       3.557  25.987   4.520  1.00 18.90      0.015 A
HETATM   10  C1G U02 A 100       5.970  25.506   3.699  1.00 14.30      0.052 C
HETATM   11   CA U02 A 100       7.142  24.597   4.140  1.00 15.90      0.070 A
HETATM   12   C2 U02 A 100       6.841  23.225   4.255  1.00 23.50      0.298 A
HETATM   13   O2 U02 A 100       5.846  22.722   3.796  1.00 32.10     -0.259 OA
HETATM   14   O3 U02 A 100       7.805  22.386   4.583  1.00 22.00     -0.278 OA
HETATM   15   C4 U02 A 100       9.071  22.794   4.813  1.00 23.90      0.083 A
HETATM   16   C5 U02 A 100       9.431  24.145   4.773  1.00 15.40      0.048 A
HETATM   17   C6 U02 A 100       8.450  25.071   4.415  1.00 11.10      0.134 A
HETATM   18   O6 U02 A 100       8.816  26.369   4.621  1.00 7.80      -0.190 OA
ENDROOT
BRANCH 1 19
HETATM   19  C2Z U02 A 100      -0.449  28.223   5.367  1.00 9.40       0.116 C
BRANCH 19 20
HETATM   20  C3Z U02 A 100       0.970  27.914   5.870  1.00 11.90      0.141 C
BRANCH 20 21
HETATM   21  N3Z U02 A 100      -2.586  25.311   1.773  1.00 23.90     -0.212 NA
HETATM   22  C4Z U02 A 100      -3.553  24.669   1.134  1.00 47.70      0.383 C
HETATM   23  O4Z U02 A 100      -4.700  25.118   0.991  1.00 57.60     -0.236 OA
BRANCH 22 24
HETATM   24  OZ5 U02 A 100      -3.086  23.312   0.681  1.00 57.20     -0.289 OA
BRANCH 24 25
HETATM   25  C5Z U02 A 100      -3.615  28.677  -4.536  1.00 49.20      0.103 C
HETATM   26  C6Z U02 A 100      -4.380  27.378  -4.831  1.00 43.60      0.030 C
HETATM   27  C7Z U02 A 100      -4.553  29.872  -4.759  1.00 39.90      0.030 C
HETATM   28  C8Z U02 A 100      -2.429  28.814  -5.492  1.00 52.80      0.030 C
ENDBRANCH 24 25
ENDBRANCH 22 24
ENDBRANCH 20 21
ENDBRANCH 19 20
ENDBRANCH 1 19
BRANCH 10 29
HETATM   29  C2G U02 A 100       5.324  25.108   2.405  1.00 20.80      0.008 A
HETATM   30  C3G U02 A 100       4.177  25.839   1.751  1.00 24.50      0.001 A
HETATM   31  C4G U02 A 100       3.997  24.409   2.224  1.00 27.30      0.001 A
ENDBRANCH 10 29
BRANCH 15 32
HETATM   32   CD U02 A 100      10.164  21.812   4.848  1.00 22.80      0.050 C
BRANCH 32 33
HETATM   33  C1D U02 A 100      10.547  22.403   6.214  1.00 17.10      0.007 C
HETATM   34  C2D U02 A 100      10.641  21.306   7.298  1.00 8.50       0.000 C
ENDBRANCH 32 33
BRANCH 32 35
HETATM   35   CE U02 A 100      10.891  21.996   3.501  1.00 17.10      0.033 C
BRANCH 35 36
HETATM   36  C1E U02 A 100      10.198  22.166   4.837  1.00 34.10     -0.022 A
HETATM   37  C6E U02 A 100       8.858  22.505   4.910  1.00 57.90     -0.004 A
HETATM   38  C5E U02 A 100       8.256  22.676   6.151  1.00 50.00     -0.000 A
HETATM   39  C4E U02 A 100       8.985  22.502   7.320  1.00 61.60     -0.000 A
HETATM   40  C3E U02 A 100      10.327  22.152   7.239  1.00 65.60     -0.000 A
HETATM   41  C2E U02 A 100      10.932  21.979   6.000  1.00 56.70     -0.004 A
ENDBRANCH 35 36
ENDBRANCH 32 35
ENDBRANCH 15 32
TORSDOF 13
