REMARK 10 active torsions:
REMARK status: ('A' for Active; 'I' for Inactive)
REMARK 1 A between atoms: CZ1_1 and CZ2_32
REMARK I between atoms: CZ1_1 and NZ1_3
REMARK I between atoms: NZ1_3 and CB5_4
REMARK I between atoms: CB1_8 and CG1_10
REMARK 2 A between atoms: CG1_10 and CG2_19
REMARK I between atoms: CG1_10 and CA_11
REMARK 3 A between atoms: CA4_15 and CD_22
REMARK 4 A between atoms: CD_22 and CD1_23
REMARK 5 A between atoms: CD_22 and CE_25
REMARK 6 A between atoms: CE_25 and CE1_26
REMARK 7 A between atoms: CZ2_32 and CZ3_33
REMARK 8 A between atoms: CZ3_33 and NZ3_34
REMARK I between atoms: NZ3_34 and CZ4_35
REMARK 9 A between atoms: CZ4_35 and OZ5_37
REMARK 10 A between atoms: OZ5_37 and CZ5_38
ROOT
HETATM    1   C1 U02 A 100       4.738  24.203   3.413  1.00 16.00      0.258 C
HETATM    2   O1 U02 A 100       4.841  24.506   4.602  1.00 23.80     -0.270 OA
HETATM    3   N1 U02 A 100       5.693  23.535   2.789  1.00 18.60     -0.212 NA
HETATM    4   C5 U02 A 100       6.823  23.219   3.579  1.00 26.10      0.084 A
HETATM    5   C4 U02 A 100       6.688  22.177   4.491  1.00 39.90      0.019 A
HETATM    6   C3 U02 A 100       7.758  21.783   5.286  1.00 39.00      0.001 A
HETATM    7   C2 U02 A 100       8.980  22.432   5.168  1.00 25.30     -0.004 A
HETATM    8   C1 U02 A 100       9.126  23.492   4.278  1.00 15.10     -0.017 A
HETATM    9  C6B U02 A 100       8.058  23.871   3.448  1.00 18.90      0.015 A
HETATM   10  C1G U02 A 100      10.474  24.218   4.325  1.00 14.30      0.052 C
HETATM   11   CA U02 A 100      11.646  23.309   4.766  1.00 15.90      0.070 A
HETATM   12   C2 U02 A 100      12.060  22.345   3.824  1.00 23.50      0.298 A
HETATM   13   O2 U02 A 100      11.741  22.372   2.662  1.00 32.10     -0.259 OA
HETATM   14   O3 U02 A 100      13.084  21.567   4.116  1.00 22.00     -0.278 OA
HETATM   15   C4 U02 A 100      13.751  21.658   5.286  1.00 23.90      0.083 A
HETATM   16   C5 U02 A 100      13.362  22.551   6.291  1.00 15.40      0.048 A
HETATM   17   C6 U02 A 100      12.293  23.408   6.024  1.00 11.10      0.134 A
HETATM   18   O6 U02 A 100      11.837  24.077   7.121  1.00 7.80      -0.190 OA
ENDROOT
BRANCH 1 19
HETATM   19  C2Z U02 A 100       3.533  24.607   2.582  1.00 9.40       0.116 C
BRANCH 19 20
HETATM   20  C3Z U02 A 100       2.267  23.784   2.871  1.00 11.90      0.141 C
BRANCH 20 21
HETATM   21  N3Z U02 A 100       0.713  24.670  -0.721  1.00 23.90     -0.212 NA
HETATM   22  C4Z U02 A 100       0.051  24.194  -1.764  1.00 47.70      0.383 C
HETATM   23  O4Z U02 A 100       0.532  23.393  -2.578  1.00 57.60     -0.236 OA
BRANCH 22 24
HETATM   24  OZ5 U02 A 100       1.288  20.514   0.973  1.00 57.20     -0.289 OA
BRANCH 24 25
HETATM   25  C5Z U02 A 100       6.905  19.982   7.550  1.00 49.20      0.103 C
HETATM   26  C6Z U02 A 100       7.753  20.039   8.829  1.00 43.60      0.030 C
HETATM   27  C7Z U02 A 100       5.480  20.452   7.872  1.00 39.90      0.030 C
HETATM   28  C8Z U02 A 100       6.831  18.544   7.035  1.00 52.80      0.030 C
ENDBRANCH 24 25
ENDBRANCH 22 24
ENDBRANCH 20 21
ENDBRANCH 19 20
ENDBRANCH 1 19
BRANCH 10 29
HETATM   29  C2G U02 A 100      10.708  24.958   3.042  1.00 20.80      0.008 A
HETATM   30  C3G U02 A 100      10.702  24.331   1.668  1.00 24.50      0.001 A
HETATM   31  C4G U02 A 100      11.968  24.968   2.209  1.00 27.30      0.001 A
ENDBRANCH 10 29
BRANCH 15 32
HETATM   32   CD U02 A 100      15.065  21.016   5.435  1.00 22.80      0.050 C
BRANCH 32 33
HETATM   33  C1D U02 A 100      15.237  20.307   6.788  1.00 17.10      0.007 C
HETATM   34  C2D U02 A 100      13.883  19.814   7.344  1.00 8.50       0.000 C
ENDBRANCH 32 33
BRANCH 32 35
HETATM   35   CE U02 A 100      16.074  22.178   5.355  1.00 17.10      0.033 C
BRANCH 35 36
HETATM   36  C1E U02 A 100      14.880  21.462   5.950  1.00 34.10     -0.022 A
HETATM   37  C6E U02 A 100      13.594  21.935   5.761  1.00 57.90     -0.004 A
HETATM   38  C5E U02 A 100      12.520  21.269   6.339  1.00 50.00     -0.000 A
HETATM   39  C4E U02 A 100      12.726  20.125   7.100  1.00 61.60     -0.000 A
HETATM   40  C3E U02 A 100      14.019  19.649   7.277  1.00 65.60     -0.000 A
HETATM   41  C2E U02 A 100      15.094  20.312   6.699  1.00 56.70     -0.004 A
ENDBRANCH 35 36
ENDBRANCH 32 35
ENDBRANCH 15 32
TORSDOF 13
