REMARK 10 active torsions:
REMARK status: ('A' for Active; 'I' for Inactive)
REMARK 1 A between atoms: CZ1_1 and CZ2_32
REMARK I between atoms: CZ1_1 and NZ1_3
REMARK I between atoms: NZ1_3 and CB5_4
REMARK I between atoms: CB1_8 and CG1_10
REMARK 2 A between atoms: CG1_10 and CG2_19
REMARK I between atoms: CG1_10 and CA_11
REMARK 3 A between atoms: CA4_15 and CD_22
REMARK 4 A between atoms: CD_22 and CD1_23
REMARK 5 A between atoms: CD_22 and CE_25
REMARK 6 A between atoms: CE_25 and CE1_26
REMARK 7 A between atoms: CZ2_32 and CZ3_33
REMARK 8 A between atoms: CZ3_33 and NZ3_34
REMARK I between atoms: NZ3_34 and CZ4_35
REMARK 9 A between atoms: CZ4_35 and OZ5_37
REMARK 10 A between atoms: OZ5_37 and CZ5_38
ROOT
HETATM    1   C1 U02 A 100       2.276  27.082   7.251  1.00 16.00      0.258 C
HETATM    2   O1 U02 A 100       2.788  27.766   8.138  1.00 23.80     -0.270 OA
HETATM    3   N1 U02 A 100       2.915  26.053   6.721  1.00 18.60     -0.212 NA
HETATM    4   C5 U02 A 100       4.211  25.818   7.238  1.00 26.10      0.084 A
HETATM    5   C4 U02 A 100       4.296  25.227   8.493  1.00 39.90      0.019 A
HETATM    6   C3 U02 A 100       5.531  24.936   9.062  1.00 39.00      0.001 A
HETATM    7   C2 U02 A 100       6.697  25.231   8.367  1.00 25.30     -0.004 A
HETATM    8   C1 U02 A 100       6.630  25.844   7.120  1.00 15.10     -0.017 A
HETATM    9  C6B U02 A 100       5.385  26.109   6.526  1.00 18.90      0.015 A
HETATM   10  C1G U02 A 100       7.975  26.244   6.504  1.00 14.30      0.052 C
HETATM   11   CA U02 A 100       9.147  25.335   6.945  1.00 15.90      0.070 A
HETATM   12   C2 U02 A 100       9.148  24.033   6.404  1.00 23.50      0.298 A
HETATM   13   O2 U02 A 100       8.469  23.704   5.463  1.00 32.10     -0.259 OA
HETATM   14   O3 U02 A 100      10.142  23.220   6.701  1.00 22.00     -0.278 OA
HETATM   15   C4 U02 A 100      11.161  23.588   7.506  1.00 23.90      0.083 A
HETATM   16   C5 U02 A 100      11.199  24.842   8.125  1.00 15.40      0.048 A
HETATM   17   C6 U02 A 100      10.176  25.746   7.829  1.00 11.10      0.134 A
HETATM   18   O6 U02 A 100      10.161  26.845   8.637  1.00 7.80      -0.190 OA
ENDROOT
BRANCH 1 19
HETATM   19  C2Z U02 A 100       0.903  27.397   6.683  1.00 9.40       0.116 C
BRANCH 19 20
HETATM   20  C3Z U02 A 100       1.835  26.372   6.017  1.00 11.90      0.141 C
BRANCH 20 21
HETATM   21  N3Z U02 A 100       0.387  28.400   8.232  1.00 23.90     -0.212 NA
HETATM   22  C4Z U02 A 100       1.083  27.742   9.146  1.00 47.70      0.383 C
HETATM   23  O4Z U02 A 100       2.196  27.239   8.934  1.00 57.60     -0.236 OA
BRANCH 22 24
HETATM   24  OZ5 U02 A 100      -2.531  31.366   7.687  1.00 57.20     -0.289 OA
BRANCH 24 25
HETATM   25  C5Z U02 A 100      -1.722  32.643   9.161  1.00 49.20      0.103 C
HETATM   26  C6Z U02 A 100      -3.041  33.263   9.645  1.00 43.60      0.030 C
HETATM   27  C7Z U02 A 100      -1.488  31.320   9.904  1.00 39.90      0.030 C
HETATM   28  C8Z U02 A 100      -0.556  33.582   9.476  1.00 52.80      0.030 C
ENDBRANCH 24 25
ENDBRANCH 22 24
ENDBRANCH 20 21
ENDBRANCH 19 20
ENDBRANCH 1 19
BRANCH 10 29
HETATM   29  C2G U02 A 100       7.836  26.406   5.019  1.00 20.80      0.008 A
HETATM   30  C3G U02 A 100       6.585  26.106   4.230  1.00 24.50      0.001 A
HETATM   31  C4G U02 A 100       7.853  25.315   3.975  1.00 27.30      0.001 A
ENDBRANCH 10 29
BRANCH 15 32
HETATM   32   CD U02 A 100      12.393  22.787   7.546  1.00 22.80      0.050 C
BRANCH 32 33
HETATM   33  C1D U02 A 100      11.651  22.445   8.848  1.00 17.10      0.007 C
HETATM   34  C2D U02 A 100      12.062  21.055   9.384  1.00 8.50       0.000 C
ENDBRANCH 32 33
BRANCH 32 35
HETATM   35   CE U02 A 100      13.413  23.608   6.732  1.00 17.10      0.033 C
BRANCH 35 36
HETATM   36  C1E U02 A 100      12.601  22.423   6.253  1.00 34.10     -0.022 A
HETATM   37  C6E U02 A 100      11.369  22.128   6.810  1.00 57.90     -0.004 A
HETATM   38  C5E U02 A 100      10.656  21.021   6.366  1.00 50.00     -0.000 A
HETATM   39  C4E U02 A 100      11.167  20.210   5.360  1.00 61.60     -0.000 A
HETATM   40  C3E U02 A 100      12.399  20.518   4.798  1.00 65.60     -0.000 A
HETATM   41  C2E U02 A 100      13.113  21.625   5.239  1.00 56.70     -0.004 A
ENDBRANCH 35 36
ENDBRANCH 32 35
ENDBRANCH 15 32
TORSDOF 13
