REMARK 10 active torsions:
REMARK status: ('A' for Active; 'I' for Inactive)
REMARK 1 A between atoms: CZ1_1 and CZ2_32
REMARK I between atoms: CZ1_1 and NZ1_3
REMARK I between atoms: NZ1_3 and CB5_4
REMARK I between atoms: CB1_8 and CG1_10
REMARK 2 A between atoms: CG1_10 and CG2_19
REMARK I between atoms: CG1_10 and CA_11
REMARK 3 A between atoms: CA4_15 and CD_22
REMARK 4 A between atoms: CD_22 and CD1_23
REMARK 5 A between atoms: CD_22 and CE_25
REMARK 6 A between atoms: CE_25 and CE1_26
REMARK 7 A between atoms: CZ2_32 and CZ3_33
REMARK 8 A between atoms: CZ3_33 and NZ3_34
REMARK I between atoms: NZ3_34 and CZ4_35
REMARK 9 A between atoms: CZ4_35 and OZ5_37
REMARK 10 A between atoms: OZ5_37 and CZ5_38
ROOT
HETATM    1   C1 U02 A 100       1.407  29.150   2.979  1.00 16.00      0.258 C
HETATM    2   O1 U02 A 100       1.752  29.697   4.026  1.00 23.80     -0.270 OA
HETATM    3   N1 U02 A 100       2.180  28.261   2.380  1.00 18.60     -0.212 NA
HETATM    4   C5 U02 A 100       3.416  28.008   3.021  1.00 26.10      0.084 A
HETATM    5   C4 U02 A 100       3.388  27.217   4.164  1.00 39.90      0.019 A
HETATM    6   C3 U02 A 100       4.561  26.897   4.838  1.00 39.00      0.001 A
HETATM    7   C2 U02 A 100       5.779  27.367   4.365  1.00 25.30     -0.004 A
HETATM    8   C1 U02 A 100       5.822  28.180   3.236  1.00 15.10     -0.017 A
HETATM    9  C6B U02 A 100       4.645  28.478   2.532  1.00 18.90      0.015 A
HETATM   10  C1G U02 A 100       7.200  28.748   2.881  1.00 14.30      0.052 C
HETATM   11   CA U02 A 100       8.372  27.839   3.322  1.00 15.90      0.070 A
HETATM   12   C2 U02 A 100       8.537  26.651   2.581  1.00 23.50      0.298 A
HETATM   13   O2 U02 A 100       8.006  26.453   1.517  1.00 32.10     -0.259 OA
HETATM   14   O3 U02 A 100       9.543  25.852   2.873  1.00 22.00     -0.278 OA
HETATM   15   C4 U02 A 100      10.424  26.129   3.857  1.00 23.90      0.083 A
HETATM   16   C5 U02 A 100      10.292  27.259   4.671  1.00 15.40      0.048 A
HETATM   17   C6 U02 A 100       9.251  28.146   4.392  1.00 11.10      0.134 A
HETATM   18   O6 U02 A 100       9.054  29.088   5.358  1.00 7.80      -0.190 OA
ENDROOT
BRANCH 1 19
HETATM   19  C2Z U02 A 100       0.095  29.486   2.290  1.00 9.40       0.116 C
BRANCH 19 20
HETATM   20  C3Z U02 A 100      -0.458  30.370   3.420  1.00 11.90      0.141 C
BRANCH 20 21
HETATM   21  N3Z U02 A 100      -2.801  30.928   2.659  1.00 23.90     -0.212 NA
HETATM   22  C4Z U02 A 100      -3.595  31.520   3.539  1.00 47.70      0.383 C
HETATM   23  O4Z U02 A 100      -3.241  32.464   4.261  1.00 57.60     -0.236 OA
BRANCH 22 24
HETATM   24  OZ5 U02 A 100      -1.991  27.052   5.266  1.00 57.20     -0.289 OA
BRANCH 24 25
HETATM   25  C5Z U02 A 100      -5.149  28.992   4.914  1.00 49.20      0.103 C
HETATM   26  C6Z U02 A 100      -6.647  29.317   4.818  1.00 43.60      0.030 C
HETATM   27  C7Z U02 A 100      -4.966  27.468   4.919  1.00 39.90      0.030 C
HETATM   28  C8Z U02 A 100      -4.576  29.547   6.220  1.00 52.80      0.030 C
ENDBRANCH 24 25
ENDBRANCH 22 24
ENDBRANCH 20 21
ENDBRANCH 19 20
ENDBRANCH 1 19
BRANCH 10 29
HETATM   29  C2G U02 A 100       7.235  29.155   1.437  1.00 20.80      0.008 A
HETATM   30  C3G U02 A 100       6.059  29.090   0.492  1.00 24.50      0.001 A
HETATM   31  C4G U02 A 100       7.292  28.245   0.233  1.00 27.30      0.001 A
ENDBRANCH 10 29
BRANCH 15 32
HETATM   32   CD U02 A 100      11.697  25.398   3.932  1.00 22.80      0.050 C
BRANCH 32 33
HETATM   33  C1D U02 A 100      12.691  26.526   4.255  1.00 17.10      0.007 C
HETATM   34  C2D U02 A 100      12.099  27.526   5.273  1.00 8.50       0.000 C
ENDBRANCH 32 33
BRANCH 32 35
HETATM   35   CE U02 A 100      12.747  26.398   3.408  1.00 17.10      0.033 C
BRANCH 35 36
HETATM   36  C1E U02 A 100      13.831  25.343   3.314  1.00 34.10     -0.022 A
HETATM   37  C6E U02 A 100      14.474  25.082   2.117  1.00 57.90     -0.004 A
HETATM   38  C5E U02 A 100      15.448  24.092   2.057  1.00 50.00     -0.000 A
HETATM   39  C4E U02 A 100      15.787  23.367   3.192  1.00 61.60     -0.000 A
HETATM   40  C3E U02 A 100      15.145  23.641   4.393  1.00 65.60     -0.000 A
HETATM   41  C2E U02 A 100      14.172  24.631   4.456  1.00 56.70     -0.004 A
ENDBRANCH 35 36
ENDBRANCH 32 35
ENDBRANCH 15 32
TORSDOF 13
