REMARK 10 active torsions:
REMARK status: ('A' for Active; 'I' for Inactive)
REMARK 1 A between atoms: CZ1_1 and CZ2_32
REMARK I between atoms: CZ1_1 and NZ1_3
REMARK I between atoms: NZ1_3 and CB5_4
REMARK I between atoms: CB1_8 and CG1_10
REMARK 2 A between atoms: CG1_10 and CG2_19
REMARK I between atoms: CG1_10 and CA_11
REMARK 3 A between atoms: CA4_15 and CD_22
REMARK 4 A between atoms: CD_22 and CD1_23
REMARK 5 A between atoms: CD_22 and CE_25
REMARK 6 A between atoms: CE_25 and CE1_26
REMARK 7 A between atoms: CZ2_32 and CZ3_33
REMARK 8 A between atoms: CZ3_33 and NZ3_34
REMARK I between atoms: NZ3_34 and CZ4_35
REMARK 9 A between atoms: CZ4_35 and OZ5_37
REMARK 10 A between atoms: OZ5_37 and CZ5_38
ROOT
HETATM    1   C1 U02 A 100       1.965  25.052   1.876  1.00 16.00      0.258 C
HETATM    2   O1 U02 A 100       1.788  25.007   3.094  1.00 23.80     -0.270 OA
HETATM    3   N1 U02 A 100       3.106  24.664   1.333  1.00 18.60     -0.212 NA
HETATM    4   C5 U02 A 100       4.088  24.217   2.249  1.00 26.10      0.084 A
HETATM    5   C4 U02 A 100       3.916  22.950   2.796  1.00 39.90      0.019 A
HETATM    6   C3 U02 A 100       4.849  22.424   3.682  1.00 39.00      0.001 A
HETATM    7   C2 U02 A 100       5.972  23.166   4.023  1.00 25.30     -0.004 A
HETATM    8   C1 U02 A 100       6.148  24.445   3.503  1.00 15.10     -0.017 A
HETATM    9  C6B U02 A 100       5.226  24.968   2.582  1.00 18.90      0.015 A
HETATM   10  C1G U02 A 100       7.349  25.224   4.048  1.00 14.30      0.052 C
HETATM   11   CA U02 A 100       8.521  24.315   4.489  1.00 15.90      0.070 A
HETATM   12   C2 U02 A 100       9.241  23.696   3.447  1.00 23.50      0.298 A
HETATM   13   O2 U02 A 100       9.159  24.032   2.292  1.00 32.10     -0.259 OA
HETATM   14   O3 U02 A 100      10.281  22.943   3.749  1.00 22.00     -0.278 OA
HETATM   15   C4 U02 A 100      10.683  22.744   5.022  1.00 23.90      0.083 A
HETATM   16   C5 U02 A 100       9.985  23.278   6.110  1.00 15.40      0.048 A
HETATM   17   C6 U02 A 100       8.886  24.095   5.842  1.00 11.10      0.134 A
HETATM   18   O6 U02 A 100       8.133  24.385   6.942  1.00 7.80      -0.190 OA
ENDROOT
BRANCH 1 19
HETATM   19  C2Z U02 A 100       0.907  25.588   0.928  1.00 9.40       0.116 C
BRANCH 19 20
HETATM   20  C3Z U02 A 100       1.078  24.121   0.500  1.00 11.90      0.141 C
BRANCH 20 21
HETATM   21  N3Z U02 A 100       0.819  23.755   2.155  1.00 23.90     -0.212 NA
HETATM   22  C4Z U02 A 100       0.255  22.636   2.584  1.00 47.70      0.383 C
HETATM   23  O4Z U02 A 100      -0.612  22.017   1.950  1.00 57.60     -0.236 OA
BRANCH 22 24
HETATM   24  OZ5 U02 A 100       6.520  22.051  -2.626  1.00 57.20     -0.289 OA
BRANCH 24 25
HETATM   25  C5Z U02 A 100       8.826  20.780  -0.267  1.00 49.20      0.103 C
HETATM   26  C6Z U02 A 100      10.209  21.044   0.347  1.00 43.60      0.030 C
HETATM   27  C7Z U02 A 100       8.162  19.614   0.478  1.00 39.90      0.030 C
HETATM   28  C8Z U02 A 100       8.974  20.386  -1.738  1.00 52.80      0.030 C
ENDBRANCH 24 25
ENDBRANCH 22 24
ENDBRANCH 20 21
ENDBRANCH 19 20
ENDBRANCH 1 19
BRANCH 10 29
HETATM   29  C2G U02 A 100       7.732  26.317   3.096  1.00 20.80      0.008 A
HETATM   30  C3G U02 A 100       8.184  26.104   1.671  1.00 24.50      0.001 A
HETATM   31  C4G U02 A 100       9.128  26.723   2.684  1.00 27.30      0.001 A
ENDBRANCH 10 29
BRANCH 15 32
HETATM   32   CD U02 A 100      12.015  22.184   5.292  1.00 22.80      0.050 C
BRANCH 32 33
HETATM   33  C1D U02 A 100      12.319  22.230   6.798  1.00 17.10      0.007 C
HETATM   34  C2D U02 A 100      11.085  21.827   7.637  1.00 8.50       0.000 C
ENDBRANCH 32 33
BRANCH 32 35
HETATM   35   CE U02 A 100      12.854  23.391   5.756  1.00 17.10      0.033 C
BRANCH 35 36
HETATM   36  C1E U02 A 100      11.984  23.176   6.977  1.00 34.10     -0.022 A
HETATM   37  C6E U02 A 100      11.074  24.136   7.385  1.00 57.90     -0.004 A
HETATM   38  C5E U02 A 100      10.306  23.920   8.523  1.00 50.00     -0.000 A
HETATM   39  C4E U02 A 100      10.437  22.744   9.251  1.00 61.60     -0.000 A
HETATM   40  C3E U02 A 100      11.344  21.780   8.829  1.00 65.60     -0.000 A
HETATM   41  C2E U02 A 100      12.113  21.993   7.691  1.00 56.70     -0.004 A
ENDBRANCH 35 36
ENDBRANCH 32 35
ENDBRANCH 15 32
TORSDOF 13
