REMARK 10 active torsions:
REMARK status: ('A' for Active; 'I' for Inactive)
REMARK 1 A between atoms: CZ1_1 and CZ2_32
REMARK I between atoms: CZ1_1 and NZ1_3
REMARK I between atoms: NZ1_3 and CB5_4
REMARK I between atoms: CB1_8 and CG1_10
REMARK 2 A between atoms: CG1_10 and CG2_19
REMARK I between atoms: CG1_10 and CA_11
REMARK 3 A between atoms: CA4_15 and CD_22
REMARK 4 A between atoms: CD_22 and CD1_23
REMARK 5 A between atoms: CD_22 and CE_25
REMARK 6 A between atoms: CE_25 and CE1_26
REMARK 7 A between atoms: CZ2_32 and CZ3_33
REMARK 8 A between atoms: CZ3_33 and NZ3_34
REMARK I between atoms: NZ3_34 and CZ4_35
REMARK 9 A between atoms: CZ4_35 and OZ5_37
REMARK 10 A between atoms: OZ5_37 and CZ5_38
ROOT
HETATM    1   C1 U02 A 100       2.576  29.598   4.922  1.00 16.00      0.258 C
HETATM    2   O1 U02 A 100       3.486  30.420   5.036  1.00 23.80     -0.270 OA
HETATM    3   N1 U02 A 100       2.824  28.301   4.879  1.00 18.60     -0.212 NA
HETATM    4   C5 U02 A 100       4.191  27.945   4.958  1.00 26.10      0.084 A
HETATM    5   C4 U02 A 100       4.795  28.020   6.208  1.00 39.90      0.019 A
HETATM    6   C3 U02 A 100       6.127  27.661   6.379  1.00 39.00      0.001 A
HETATM    7   C2 U02 A 100       6.866  27.216   5.291  1.00 25.30     -0.004 A
HETATM    8   C1 U02 A 100       6.284  27.157   4.029  1.00 15.10     -0.017 A
HETATM    9  C6B U02 A 100       4.930  27.486   3.857  1.00 18.90      0.015 A
HETATM   10  C1G U02 A 100       7.226  26.779   2.881  1.00 14.30      0.052 C
HETATM   11   CA U02 A 100       8.398  25.870   3.322  1.00 15.90      0.070 A
HETATM   12   C2 U02 A 100       8.054  24.541   3.639  1.00 23.50      0.298 A
HETATM   13   O2 U02 A 100       6.999  24.039   3.344  1.00 32.10     -0.259 OA
HETATM   14   O3 U02 A 100       9.010  23.699   3.979  1.00 22.00     -0.278 OA
HETATM   15   C4 U02 A 100      10.309  24.063   4.034  1.00 23.90      0.083 A
HETATM   16   C5 U02 A 100      10.718  25.378   3.788  1.00 15.40      0.048 A
HETATM   17   C6 U02 A 100       9.745  26.304   3.409  1.00 11.10      0.134 A
HETATM   18   O6 U02 A 100      10.183  27.596   3.412  1.00 7.80      -0.190 OA
ENDROOT
BRANCH 1 19
HETATM   19  C2Z U02 A 100       1.124  30.020   4.786  1.00 9.40       0.116 C
BRANCH 19 20
HETATM   20  C3Z U02 A 100       0.568  29.589   3.419  1.00 11.90      0.141 C
BRANCH 20 21
HETATM   21  N3Z U02 A 100       1.248  28.772   2.379  1.00 23.90     -0.212 NA
HETATM   22  C4Z U02 A 100       0.545  28.176   1.428  1.00 47.70      0.383 C
HETATM   23  O4Z U02 A 100      -0.666  28.369   1.243  1.00 57.60     -0.236 OA
BRANCH 22 24
HETATM   24  OZ5 U02 A 100       2.497  28.240   1.684  1.00 57.20     -0.289 OA
BRANCH 24 25
HETATM   25  C5Z U02 A 100      -0.192  27.820   1.440  1.00 49.20      0.103 C
HETATM   26  C6Z U02 A 100       0.320  26.960   2.605  1.00 43.60      0.030 C
HETATM   27  C7Z U02 A 100      -1.598  28.336   1.780  1.00 39.90      0.030 C
HETATM   28  C8Z U02 A 100      -0.287  26.975   0.168  1.00 52.80      0.030 C
ENDBRANCH 24 25
ENDBRANCH 22 24
ENDBRANCH 20 21
ENDBRANCH 19 20
ENDBRANCH 1 19
BRANCH 10 29
HETATM   29  C2G U02 A 100       6.438  26.260   1.715  1.00 20.80      0.008 A
HETATM   30  C3G U02 A 100       6.884  26.319   0.274  1.00 24.50      0.001 A
HETATM   31  C4G U02 A 100       5.643  27.068   0.717  1.00 27.30      0.001 A
ENDBRANCH 10 29
BRANCH 15 32
HETATM   32   CD U02 A 100      11.359  23.037   4.091  1.00 22.80      0.050 C
BRANCH 32 33
HETATM   33  C1D U02 A 100      11.472  23.203   2.567  1.00 17.10      0.007 C
HETATM   34  C2D U02 A 100      10.083  23.181   1.891  1.00 8.50       0.000 C
ENDBRANCH 32 33
BRANCH 32 35
HETATM   35   CE U02 A 100      11.954  23.014   2.669  1.00 17.10      0.033 C
BRANCH 35 36
HETATM   36  C1E U02 A 100      11.566  24.080   1.665  1.00 34.10     -0.022 A
HETATM   37  C6E U02 A 100      10.781  25.158   2.034  1.00 57.90     -0.004 A
HETATM   38  C5E U02 A 100      10.422  26.109   1.086  1.00 50.00     -0.000 A
HETATM   39  C4E U02 A 100      10.852  25.990  -0.230  1.00 61.60     -0.000 A
HETATM   40  C3E U02 A 100      11.650  24.911  -0.591  1.00 65.60     -0.000 A
HETATM   41  C2E U02 A 100      12.011  23.960   0.356  1.00 56.70     -0.004 A
ENDBRANCH 35 36
ENDBRANCH 32 35
ENDBRANCH 15 32
TORSDOF 13
