REMARK 10 active torsions:
REMARK status: ('A' for Active; 'I' for Inactive)
REMARK 1 A between atoms: CZ1_1 and CZ2_32
REMARK I between atoms: CZ1_1 and NZ1_3
REMARK I between atoms: NZ1_3 and CB5_4
REMARK I between atoms: CB1_8 and CG1_10
REMARK 2 A between atoms: CG1_10 and CG2_19
REMARK I between atoms: CG1_10 and CA_11
REMARK 3 A between atoms: CA4_15 and CD_22
REMARK 4 A between atoms: CD_22 and CD1_23
REMARK 5 A between atoms: CD_22 and CE_25
REMARK 6 A between atoms: CE_25 and CE1_26
REMARK 7 A between atoms: CZ2_32 and CZ3_33
REMARK 8 A between atoms: CZ3_33 and NZ3_34
REMARK I between atoms: NZ3_34 and CZ4_35
REMARK 9 A between atoms: CZ4_35 and OZ5_37
REMARK 10 A between atoms: OZ5_37 and CZ5_38
ROOT
HETATM    1   C1 U02 A 100       8.656  32.677   6.350  1.00 16.00      0.258 C
HETATM    2   O1 U02 A 100       9.618  33.421   6.163  1.00 23.80     -0.270 OA
HETATM    3   N1 U02 A 100       8.817  31.378   6.533  1.00 18.60     -0.212 NA
HETATM    4   C5 U02 A 100      10.155  30.924   6.484  1.00 26.10      0.084 A
HETATM    5   C4 U02 A 100      10.954  31.181   7.593  1.00 39.90      0.019 A
HETATM    6   C3 U02 A 100      12.273  30.745   7.638  1.00 39.00      0.001 A
HETATM    7   C2 U02 A 100      12.803  30.037   6.567  1.00 25.30     -0.004 A
HETATM    8   C1 U02 A 100      12.025  29.792   5.440  1.00 15.10     -0.017 A
HETATM    9  C6B U02 A 100      10.682  30.200   5.403  1.00 18.90      0.015 A
HETATM   10  C1G U02 A 100      12.748  29.120   4.268  1.00 14.30      0.052 C
HETATM   11   CA U02 A 100      13.920  28.211   4.709  1.00 15.90      0.070 A
HETATM   12   C2 U02 A 100      13.554  27.002   5.333  1.00 23.50      0.298 A
HETATM   13   O2 U02 A 100      12.437  26.549   5.301  1.00 32.10     -0.259 OA
HETATM   14   O3 U02 A 100      14.501  26.158   5.694  1.00 22.00     -0.278 OA
HETATM   15   C4 U02 A 100      15.811  26.410   5.487  1.00 23.90      0.083 A
HETATM   16   C5 U02 A 100      16.252  27.613   4.925  1.00 15.40      0.048 A
HETATM   17   C6 U02 A 100      15.287  28.533   4.512  1.00 11.10      0.134 A
HETATM   18   O6 U02 A 100      15.795  29.758   4.190  1.00 7.80      -0.190 OA
ENDROOT
BRANCH 1 19
HETATM   19  C2Z U02 A 100       7.227  33.192   6.342  1.00 9.40       0.116 C
BRANCH 19 20
HETATM   20  C3Z U02 A 100       8.585  32.474   6.396  1.00 11.90      0.141 C
BRANCH 20 21
HETATM   21  N3Z U02 A 100       5.436  28.951   6.485  1.00 23.90     -0.212 NA
HETATM   22  C4Z U02 A 100       4.431  28.137   6.197  1.00 47.70      0.383 C
HETATM   23  O4Z U02 A 100       3.805  28.167   5.127  1.00 57.60     -0.236 OA
BRANCH 22 24
HETATM   24  OZ5 U02 A 100       3.736  27.202   6.918  1.00 57.20     -0.289 OA
BRANCH 24 25
HETATM   25  C5Z U02 A 100      12.980  30.029  -3.316  1.00 49.20      0.103 C
HETATM   26  C6Z U02 A 100      13.852  30.562  -4.463  1.00 43.60      0.030 C
HETATM   27  C7Z U02 A 100      13.871  29.275  -2.318  1.00 39.90      0.030 C
HETATM   28  C8Z U02 A 100      11.938  29.051  -3.862  1.00 52.80      0.030 C
ENDBRANCH 24 25
ENDBRANCH 22 24
ENDBRANCH 20 21
ENDBRANCH 19 20
ENDBRANCH 1 19
BRANCH 10 29
HETATM   29  C2G U02 A 100      11.756  28.461   3.357  1.00 20.80      0.008 A
HETATM   30  C3G U02 A 100      11.717  28.625   1.856  1.00 24.50      0.001 A
HETATM   31  C4G U02 A 100      10.552  29.098   2.703  1.00 27.30      0.001 A
ENDBRANCH 10 29
BRANCH 15 32
HETATM   32   CD U02 A 100      16.795  25.324   5.597  1.00 22.80      0.050 C
BRANCH 32 33
HETATM   33  C1D U02 A 100      16.565  24.360   4.422  1.00 17.10      0.007 C
HETATM   34  C2D U02 A 100      15.836  25.058   3.252  1.00 8.50       0.000 C
ENDBRANCH 32 33
BRANCH 32 35
HETATM   35   CE U02 A 100      17.154  24.979   4.138  1.00 17.10      0.033 C
BRANCH 35 36
HETATM   36  C1E U02 A 100      17.841  24.997   5.488  1.00 34.10     -0.022 A
HETATM   37  C6E U02 A 100      18.361  26.167   6.011  1.00 57.90     -0.004 A
HETATM   38  C5E U02 A 100      19.005  26.147   7.242  1.00 50.00     -0.000 A
HETATM   39  C4E U02 A 100      19.125  24.962   7.957  1.00 61.60     -0.000 A
HETATM   40  C3E U02 A 100      18.591  23.793   7.431  1.00 65.60     -0.000 A
HETATM   41  C2E U02 A 100      17.945  23.810   6.201  1.00 56.70     -0.004 A
ENDBRANCH 35 36
ENDBRANCH 32 35
ENDBRANCH 15 32
TORSDOF 13
