REMARK 10 active torsions:
REMARK status: ('A' for Active; 'I' for Inactive)
REMARK 1 A between atoms: CZ1_1 and CZ2_32
REMARK I between atoms: CZ1_1 and NZ1_3
REMARK I between atoms: NZ1_3 and CB5_4
REMARK I between atoms: CB1_8 and CG1_10
REMARK 2 A between atoms: CG1_10 and CG2_19
REMARK I between atoms: CG1_10 and CA_11
REMARK 3 A between atoms: CA4_15 and CD_22
REMARK 4 A between atoms: CD_22 and CD1_23
REMARK 5 A between atoms: CD_22 and CE_25
REMARK 6 A between atoms: CE_25 and CE1_26
REMARK 7 A between atoms: CZ2_32 and CZ3_33
REMARK 8 A between atoms: CZ3_33 and NZ3_34
REMARK I between atoms: NZ3_34 and CZ4_35
REMARK 9 A between atoms: CZ4_35 and OZ5_37
REMARK 10 A between atoms: OZ5_37 and CZ5_38
ROOT
HETATM    1   C1 U02 A 100       1.543  27.715   3.211  1.00 16.00      0.258 C
HETATM    2   O1 U02 A 100       2.048  28.393   4.105  1.00 23.80     -0.270 OA
HETATM    3   N1 U02 A 100       2.188  26.691   2.678  1.00 18.60     -0.212 NA
HETATM    4   C5 U02 A 100       3.481  26.456   3.199  1.00 26.10      0.084 A
HETATM    5   C4 U02 A 100       3.561  25.856   4.451  1.00 39.90      0.019 A
HETATM    6   C3 U02 A 100       4.794  25.564   5.024  1.00 39.00      0.001 A
HETATM    7   C2 U02 A 100       5.963  25.868   4.339  1.00 25.30     -0.004 A
HETATM    8   C1 U02 A 100       5.901  26.490   3.096  1.00 15.10     -0.017 A
HETATM    9  C6B U02 A 100       4.659  26.756   2.497  1.00 18.90      0.015 A
HETATM   10  C1G U02 A 100       7.248  26.898   2.490  1.00 14.30      0.052 C
HETATM   11   CA U02 A 100       8.420  25.989   2.931  1.00 15.90      0.070 A
HETATM   12   C2 U02 A 100       8.428  24.691   2.381  1.00 23.50      0.298 A
HETATM   13   O2 U02 A 100       7.756  24.367   1.434  1.00 32.10     -0.259 OA
HETATM   14   O3 U02 A 100       9.423  23.878   2.678  1.00 22.00     -0.278 OA
HETATM   15   C4 U02 A 100      10.436  24.243   3.491  1.00 23.90      0.083 A
HETATM   16   C5 U02 A 100      10.467  25.493   4.119  1.00 15.40      0.048 A
HETATM   17   C6 U02 A 100       9.444  26.396   3.825  1.00 11.10      0.134 A
HETATM   18   O6 U02 A 100       9.421  27.489   4.641  1.00 7.80      -0.190 OA
ENDROOT
BRANCH 1 19
HETATM   19  C2Z U02 A 100       0.173  28.030   2.638  1.00 9.40       0.116 C
BRANCH 19 20
HETATM   20  C3Z U02 A 100      -0.695  27.537   1.469  1.00 11.90      0.141 C
BRANCH 20 21
HETATM   21  N3Z U02 A 100      -1.356  28.994   0.851  1.00 23.90     -0.212 NA
HETATM   22  C4Z U02 A 100      -2.551  29.477   1.157  1.00 47.70      0.383 C
HETATM   23  O4Z U02 A 100      -3.239  29.063   2.103  1.00 57.60     -0.236 OA
BRANCH 22 24
HETATM   24  OZ5 U02 A 100      -2.770  30.538   1.157  1.00 57.20     -0.289 OA
BRANCH 24 25
HETATM   25  C5Z U02 A 100       5.738  30.446   5.961  1.00 49.20      0.103 C
HETATM   26  C6Z U02 A 100       6.633  29.198   5.969  1.00 43.60      0.030 C
HETATM   27  C7Z U02 A 100       6.564  31.657   6.417  1.00 39.90      0.030 C
HETATM   28  C8Z U02 A 100       4.576  30.263   6.938  1.00 52.80      0.030 C
ENDBRANCH 24 25
ENDBRANCH 22 24
ENDBRANCH 20 21
ENDBRANCH 19 20
ENDBRANCH 1 19
BRANCH 10 29
HETATM   29  C2G U02 A 100       7.117  27.071   1.006  1.00 20.80      0.008 A
HETATM   30  C3G U02 A 100       7.938  28.024   0.171  1.00 24.50      0.001 A
HETATM   31  C4G U02 A 100       6.436  28.204   0.275  1.00 27.30      0.001 A
ENDBRANCH 10 29
BRANCH 15 32
HETATM   32   CD U02 A 100      11.670  23.446   3.532  1.00 22.80      0.050 C
BRANCH 32 33
HETATM   33  C1D U02 A 100      12.251  23.194   2.132  1.00 17.10      0.007 C
HETATM   34  C2D U02 A 100      11.853  24.313   1.144  1.00 8.50       0.000 C
ENDBRANCH 32 33
BRANCH 32 35
HETATM   35   CE U02 A 100      12.693  24.275   2.730  1.00 17.10      0.033 C
BRANCH 35 36
HETATM   36  C1E U02 A 100      12.151  25.577   3.284  1.00 34.10     -0.022 A
HETATM   37  C6E U02 A 100      10.794  25.760   3.485  1.00 57.90     -0.004 A
HETATM   38  C5E U02 A 100      10.325  26.973   3.972  1.00 50.00     -0.000 A
HETATM   39  C4E U02 A 100      11.209  28.004   4.269  1.00 61.60     -0.000 A
HETATM   40  C3E U02 A 100      12.570  27.809   4.076  1.00 65.60     -0.000 A
HETATM   41  C2E U02 A 100      13.042  26.597   3.589  1.00 56.70     -0.004 A
ENDBRANCH 35 36
ENDBRANCH 32 35
ENDBRANCH 15 32
TORSDOF 13
