REMARK  10 active torsions:
REMARK  status: ('A' for Active; 'I' for Inactive)
REMARK    1  A    between atoms: C08_8  and  N01_1 
REMARK    2  A    between atoms: C23_23  and  N03_3 
REMARK    3  A    between atoms: C04_4  and  C41_41 
REMARK    4  A    between atoms: C07_7  and  C32_32 
REMARK    5  A    between atoms: C08_8  and  C09_9 
REMARK    6  A    between atoms: C17_17  and  O16_16 
REMARK    7  A    between atoms: C41_41  and  O16_16 
REMARK    8  A    between atoms: C23_23  and  C24_24 
REMARK    9  A    between atoms: C32_32  and  O33_33 
REMARK   10  A    between atoms: C34_34  and  O33_33 
ROOT
HETATM    1  N01 NMB A 501      11.288  23.491   5.863  1.00 15.06    -0.236 N 
HETATM    2  S02 NMB A 501      11.752  21.994   6.409  1.00 12.44     0.327 S 
HETATM    3  N03 NMB A 501      13.339  22.051   6.143  1.00 13.50    -0.254 N 
HETATM    4  C04 NMB A 501      13.718  21.882   4.715  1.00 16.90     0.157 C 
HETATM    5  C05 NMB A 501      13.866  23.222   4.019  1.00 12.70     0.208 C 
HETATM    6  C06 NMB A 501      12.964  24.314   4.550  1.00 12.56     0.208 C 
HETATM    7  C07 NMB A 501      11.470  24.031   4.534  1.00 11.34     0.162 C 
HETATM    8  O15 NMB A 501      11.195  20.919   5.621  1.00 13.56    -0.182 OA
HETATM    9  O30 NMB A 501      15.185  23.696   4.171  1.00 13.24    -0.218 OA
HETATM   10  O31 NMB A 501      13.282  25.492   3.848  1.00 15.08    -0.218 OA
HETATM   11  O40 NMB A 501      11.563  21.966   7.821  1.00 16.60    -0.182 OA
ENDROOT
BRANCH   4  12
HETATM   12  C41 NMB A 501      14.980  21.017   4.548  1.00 18.23     0.174 C 
BRANCH  12  13
HETATM   13  O16 NMB A 501      14.762  20.021   3.521  1.00 20.72    -0.329 OA
BRANCH  13  14
HETATM   14  C17 NMB A 501      15.758  19.150   3.211  1.00 14.47     0.094 A 
HETATM   15  C18 NMB A 501      16.685  18.752   4.198  1.00 11.79     0.024 A 
HETATM   16  C19 NMB A 501      17.711  17.848   3.882  1.00 14.96     0.002 A 
HETATM   17  C20 NMB A 501      17.804  17.334   2.569  1.00 14.23     0.000 A 
HETATM   18  C21 NMB A 501      16.880  17.726   1.585  1.00 12.66     0.002 A 
HETATM   19  C22 NMB A 501      15.866  18.632   1.912  1.00 11.31     0.024 A 
ENDBRANCH  13  14
ENDBRANCH  12  13
ENDBRANCH   4  12
BRANCH   3  20
HETATM   20  C23 NMB A 501      14.199  22.696   7.160  1.00 11.47     0.141 C 
BRANCH  20  21
HETATM   21  C24 NMB A 501      15.185  21.856   7.925  1.00 12.93     0.001 A 
HETATM   22  C25 NMB A 501      14.748  20.969   8.940  1.00 16.94    -0.002 A 
HETATM   23  C26 NMB A 501      15.687  20.170   9.651  1.00 18.28    -0.000 A 
HETATM   24  C27 NMB A 501      17.061  20.260   9.346  1.00 13.74    -0.000 A 
HETATM   25  C28 NMB A 501      17.495  21.147   8.336  1.00 16.62    -0.000 A 
HETATM   26  C29 NMB A 501      16.558  21.938   7.631  1.00 13.68    -0.002 A 
ENDBRANCH  20  21
ENDBRANCH   3  20
BRANCH   1  27
HETATM   27  C08 NMB A 501      10.097  23.950   6.436  1.00 15.66     0.088 C 
BRANCH  27  28
HETATM   28  C09 NMB A 501       9.759  25.135   7.273  1.00 14.71     0.018 A 
HETATM   29  C10 NMB A 501       8.526  25.784   7.141  1.00 12.56     0.002 A 
HETATM   30  C11 NMB A 501       8.230  26.897   7.929  1.00 19.25     0.000 A 
HETATM   31  C12 NMB A 501       9.185  27.378   8.869  1.00 18.30     0.000 A 
HETATM   32  C13 NMB A 501      10.431  26.739   9.009  1.00 14.23     0.000 A 
HETATM   33  C14 NMB A 501      10.716  25.613   8.206  1.00 15.35     0.002 A 
ENDBRANCH  27  28
ENDBRANCH   1  27
BRANCH   7  34
HETATM   34  C32 NMB A 501      10.812  23.139   3.466  1.00 11.25     0.175 C 
BRANCH  34  35
HETATM   35  O33 NMB A 501       9.388  23.235   3.713  1.00 12.26    -0.329 OA
BRANCH  35  36
HETATM   36  C34 NMB A 501       8.638  24.096   2.999  1.00 12.57     0.094 A 
HETATM   37  C35 NMB A 501       9.186  25.297   2.506  1.00 14.00     0.024 A 
HETATM   38  C36 NMB A 501       8.412  26.203   1.767  1.00 14.78     0.002 A 
HETATM   39  C37 NMB A 501       7.065  25.914   1.516  1.00 14.25     0.000 A 
HETATM   40  C38 NMB A 501       6.507  24.722   2.007  1.00 17.66     0.002 A 
HETATM   41  C39 NMB A 501       7.299  23.816   2.745  1.00 14.50     0.024 A 
ENDBRANCH  35  36
ENDBRANCH  34  35
ENDBRANCH   7  34
TORSDOF 10
