REMARK  10 active torsions:
REMARK  status: ('A' for Active; 'I' for Inactive)
REMARK       I    between atoms: C13_1  and  C14_3 
REMARK    1  A    between atoms: C13_1  and  O1_34 
REMARK       I    between atoms: C13_1  and  C5_2 
REMARK    2  A    between atoms: C5_2  and  C6_6 
REMARK    3  A    between atoms: C5_2  and  N1_13 
REMARK       I    between atoms: C14_3  and  N2_4 
REMARK    4  A    between atoms: N2_4  and  N3_17 
REMARK    5  A    between atoms: N2_4  and  C15_27 
REMARK    6  A    between atoms: C6_6  and  C7_7 
REMARK       I    between atoms: N1_13  and  C30_14 
REMARK    7  A    between atoms: C30_14  and  O4_36 
REMARK    8  A    between atoms: O4_36  and  C1_37 
REMARK       I    between atoms: N3_17  and  C23_18 
REMARK    9  A    between atoms: C23_18  and  C27_21 
REMARK   10  A    between atoms: C15_27  and  C16_28 
ROOT
HETATM    1  C13 ARQ A 401       5.642  -0.319  14.998  1.00 12.77     0.187 C 
HETATM    2  C5  ARQ A 401       5.716   0.269  13.558  1.00 14.02     0.133 C 
HETATM    3  C14 ARQ A 401       4.669  -1.525  15.008  1.00 14.15     0.264 C 
HETATM    4  N2  ARQ A 401       4.998  -2.669  15.910  1.00 16.35     0.070 N 
HETATM    5  C22 ARQ A 401       5.441  -2.219  17.249  1.00 15.50     0.278 C 
ENDROOT
BRANCH   1   6
HETATM    6  O1  ARQ A 401       5.248   0.651  15.980  1.00  8.69    -0.391 OA
HETATM    7  HO1 ARQ A 401       4.272   0.697  16.063  0.00  0.00     0.210 HD
ENDBRANCH   1   6
BRANCH   2   8
HETATM    8  C6  ARQ A 401       6.953   1.163  13.346  1.00  9.73     0.042 C 
BRANCH   8   9
HETATM    9  C7  ARQ A 401       6.975   1.824  11.998  1.00  9.34    -0.021 A 
HETATM   10  C8  ARQ A 401       6.815   1.051  10.826  1.00  8.95    -0.004 A 
HETATM   11  C9  ARQ A 401       6.791   1.701   9.574  1.00  6.26    -0.000 A 
HETATM   12  C10 ARQ A 401       6.927   3.110   9.519  1.00  5.40    -0.000 A 
HETATM   13  C12 ARQ A 401       7.085   3.888  10.692  1.00  5.52    -0.000 A 
HETATM   14  C11 ARQ A 401       7.114   3.232  11.941  1.00  8.18    -0.004 A 
ENDBRANCH   8   9
ENDBRANCH   2   8
BRANCH   2  15
HETATM   15  N1  ARQ A 401       4.497   0.994  13.193  1.00 11.89    -0.329 N 
HETATM   16  C30 ARQ A 401       3.511   0.571  12.400  1.00 11.18     0.361 C 
HETATM   17  O3  ARQ A 401       3.399  -0.533  11.970  1.00  9.15    -0.238 OA
HETATM   18  HN1 ARQ A 401       4.325   1.941  13.433  0.00  0.00     0.165 HD
BRANCH  16  19
HETATM   19  O4  ARQ A 401       2.664   1.554  12.108  1.00 13.55    -0.290 OA
BRANCH  19  20
HETATM   20  C1  ARQ A 401       1.474   1.321  11.354  1.00 10.36     0.103 C 
HETATM   21  C3  ARQ A 401       0.675   2.633  11.410  1.00  7.58     0.030 C 
HETATM   22  C4  ARQ A 401       1.852   1.006   9.891  1.00  4.50     0.030 C 
HETATM   23  C2  ARQ A 401       0.562   0.252  12.036  1.00 10.59     0.030 C 
ENDBRANCH  19  20
ENDBRANCH  16  19
ENDBRANCH   2  15
BRANCH   4  24
HETATM   24  N3  ARQ A 401       6.121  -3.333  15.291  1.00 13.41    -0.177 N 
HETATM   25  C23 ARQ A 401       6.067  -4.033  14.140  1.00 20.01     0.277 C 
HETATM   26  O2  ARQ A 401       5.015  -4.224  13.523  1.00 22.49    -0.266 OA
HETATM   27  HN3 ARQ A 401       7.032  -3.144  15.636  0.00  0.00     0.197 HD
BRANCH  25  28
HETATM   28  C27 ARQ A 401       7.360  -4.579  13.674  1.00 23.08     0.057 A 
HETATM   29  C28 ARQ A 401       8.593  -4.222  14.279  1.00 25.64     0.005 A 
HETATM   30  C29 ARQ A 401       9.781  -4.839  13.838  1.00 23.32     0.000 A 
HETATM   31  C24 ARQ A 401       9.714  -5.796  12.796  1.00 19.95     0.000 A 
HETATM   32  C25 ARQ A 401       8.521  -6.101  12.123  1.00 18.68     0.000 A 
HETATM   33  C26 ARQ A 401       7.343  -5.490  12.582  1.00 23.69     0.005 A 
ENDBRANCH  25  28
ENDBRANCH   4  24
BRANCH   4  34
HETATM   34  C15 ARQ A 401       3.718  -3.441  16.024  1.00 12.33     0.269 C 
BRANCH  34  35
HETATM   35  C16 ARQ A 401       3.724  -4.695  16.883  1.00  6.95     0.011 A 
HETATM   36  C20 ARQ A 401       3.386  -4.632  18.248  1.00  8.21    -0.002 A 
HETATM   37  C21 ARQ A 401       3.502  -5.791  19.063  1.00  7.45    -0.000 A 
HETATM   38  C19 ARQ A 401       3.957  -7.006  18.505  1.00  3.77    -0.000 A 
HETATM   39  C18 ARQ A 401       4.162  -7.106  17.109  1.00  9.70    -0.000 A 
HETATM   40  C17 ARQ A 401       4.055  -5.940  16.308  1.00  9.51    -0.002 A 
ENDBRANCH  34  35
ENDBRANCH   4  34
TORSDOF 13
