REMARK 10 active torsions:
REMARK status: ('A' for Active; 'I' for Inactive)
REMARK 1 A between atoms: CZ1_1 and CZ2_32
REMARK I between atoms: CZ1_1 and NZ1_3
REMARK I between atoms: NZ1_3 and CB5_4
REMARK I between atoms: CB1_8 and CG1_10
REMARK 2 A between atoms: CG1_10 and CG2_19
REMARK I between atoms: CG1_10 and CA_11
REMARK 3 A between atoms: CA4_15 and CD_22
REMARK 4 A between atoms: CD_22 and CD1_23
REMARK 5 A between atoms: CD_22 and CE_25
REMARK 6 A between atoms: CE_25 and CE1_26
REMARK 7 A between atoms: CZ2_32 and CZ3_33
REMARK 8 A between atoms: CZ3_33 and NZ3_34
REMARK I between atoms: NZ3_34 and CZ4_35
REMARK 9 A between atoms: CZ4_35 and OZ5_37
REMARK 10 A between atoms: OZ5_37 and CZ5_38
ROOT
HETATM    1   C1 U02 A 100       1.638  26.705   6.816  1.00 16.00      0.258 C
HETATM    2   O1 U02 A 100       2.551  27.524   6.916  1.00 23.80     -0.270 OA
HETATM    3   N1 U02 A 100       1.880  25.406   6.784  1.00 18.60     -0.212 NA
HETATM    4   C5 U02 A 100       3.246  25.046   6.856  1.00 26.10      0.084 A
HETATM    5   C4 U02 A 100       3.860  25.131   8.101  1.00 39.90      0.019 A
HETATM    6   C3 U02 A 100       5.192  24.769   8.265  1.00 39.00      0.001 A
HETATM    7   C2 U02 A 100       5.922  24.311   7.176  1.00 25.30     -0.004 A
HETATM    8   C1 U02 A 100       5.330  24.242   5.919  1.00 15.10     -0.017 A
HETATM    9  C6B U02 A 100       3.975  24.573   5.754  1.00 18.90      0.015 A
HETATM   10  C1G U02 A 100       6.262  23.849   4.767  1.00 14.30      0.052 C
HETATM   11   CA U02 A 100       7.434  22.940   5.208  1.00 15.90      0.070 A
HETATM   12   C2 U02 A 100       7.088  21.615   5.541  1.00 23.50      0.298 A
HETATM   13   O2 U02 A 100       6.028  21.114   5.259  1.00 32.10     -0.259 OA
HETATM   14   O3 U02 A 100       8.043  20.773   5.882  1.00 22.00     -0.278 OA
HETATM   15   C4 U02 A 100       9.343  21.133   5.924  1.00 23.90      0.083 A
HETATM   16   C5 U02 A 100       9.756  22.444   5.662  1.00 15.40      0.048 A
HETATM   17   C6 U02 A 100       8.783  23.370   5.282  1.00 11.10      0.134 A
HETATM   18   O6 U02 A 100       9.225  24.660   5.268  1.00 7.80      -0.190 OA
ENDROOT
BRANCH 1 19
HETATM   19  C2Z U02 A 100       0.186  27.131   6.687  1.00 9.40       0.116 C
BRANCH 19 20
HETATM   20  C3Z U02 A 100      -0.530  26.689   5.400  1.00 11.90      0.141 C
BRANCH 20 21
HETATM   21  N3Z U02 A 100      -1.363  25.476   5.457  1.00 23.90     -0.212 NA
HETATM   22  C4Z U02 A 100      -2.468  25.379   4.733  1.00 47.70      0.383 C
HETATM   23  O4Z U02 A 100      -2.787  26.191   3.852  1.00 57.60     -0.236 OA
BRANCH 22 24
HETATM   24  OZ5 U02 A 100      -0.792  24.787   7.087  1.00 57.20     -0.289 OA
BRANCH 24 25
HETATM   25  C5Z U02 A 100      -2.937  30.304   1.285  1.00 49.20      0.103 C
HETATM   26  C6Z U02 A 100      -3.642  31.440   2.042  1.00 43.60      0.030 C
HETATM   27  C7Z U02 A 100      -3.133  30.510  -0.224  1.00 39.90      0.030 C
HETATM   28  C8Z U02 A 100      -3.556  28.958   1.668  1.00 52.80      0.030 C
ENDBRANCH 24 25
ENDBRANCH 22 24
ENDBRANCH 20 21
ENDBRANCH 19 20
ENDBRANCH 1 19
BRANCH 10 29
HETATM   29  C2G U02 A 100       5.463  23.321   3.613  1.00 20.80      0.008 A
HETATM   30  C3G U02 A 100       4.193  22.515   3.737  1.00 24.50      0.001 A
HETATM   31  C4G U02 A 100       5.425  21.900   3.102  1.00 27.30      0.001 A
ENDBRANCH 10 29
BRANCH 15 32
HETATM   32   CD U02 A 100      10.390  20.103   5.983  1.00 22.80      0.050 C
BRANCH 32 33
HETATM   33  C1D U02 A 100      10.340  21.208   7.050  1.00 17.10      0.007 C
HETATM   34  C2D U02 A 100      10.250  20.616   8.474  1.00 8.50       0.000 C
ENDBRANCH 32 33
BRANCH 32 35
HETATM   35   CE U02 A 100      10.975  20.065   4.557  1.00 17.10      0.033 C
BRANCH 35 36
HETATM   36  C1E U02 A 100      10.236  19.321   3.463  1.00 34.10     -0.022 A
HETATM   37  C6E U02 A 100       9.047  18.662   3.723  1.00 57.90     -0.004 A
HETATM   38  C5E U02 A 100       8.404  17.969   2.704  1.00 50.00     -0.000 A
HETATM   39  C4E U02 A 100       8.941  17.939   1.424  1.00 61.60     -0.000 A
HETATM   40  C3E U02 A 100      10.129  18.612   1.167  1.00 65.60     -0.000 A
HETATM   41  C2E U02 A 100      10.773  19.306   2.183  1.00 56.70     -0.004 A
ENDBRANCH 35 36
ENDBRANCH 32 35
ENDBRANCH 15 32
TORSDOF 13
