REMARK 10 active torsions:
REMARK status: ('A' for Active; 'I' for Inactive)
REMARK 1 A between atoms: CZ1_1 and CZ2_32
REMARK I between atoms: CZ1_1 and NZ1_3
REMARK I between atoms: NZ1_3 and CB5_4
REMARK I between atoms: CB1_8 and CG1_10
REMARK 2 A between atoms: CG1_10 and CG2_19
REMARK I between atoms: CG1_10 and CA_11
REMARK 3 A between atoms: CA4_15 and CD_22
REMARK 4 A between atoms: CD_22 and CD1_23
REMARK 5 A between atoms: CD_22 and CE_25
REMARK 6 A between atoms: CE_25 and CE1_26
REMARK 7 A between atoms: CZ2_32 and CZ3_33
REMARK 8 A between atoms: CZ3_33 and NZ3_34
REMARK I between atoms: NZ3_34 and CZ4_35
REMARK 9 A between atoms: CZ4_35 and OZ5_37
REMARK 10 A between atoms: OZ5_37 and CZ5_38
ROOT
HETATM    1   C1 U02 A 100       5.645  28.684   4.906  1.00 16.00      0.258 C
HETATM    2   O1 U02 A 100       6.614  29.374   4.589  1.00 23.80     -0.270 OA
HETATM    3   N1 U02 A 100       5.779  27.401   5.194  1.00 18.60     -0.212 NA
HETATM    4   C5 U02 A 100       7.097  26.896   5.096  1.00 26.10      0.084 A
HETATM    5   C4 U02 A 100       7.978  27.220   6.121  1.00 39.90      0.019 A
HETATM    6   C3 U02 A 100       9.284  26.741   6.117  1.00 39.00      0.001 A
HETATM    7   C2 U02 A 100       9.715  25.924   5.080  1.00 25.30     -0.004 A
HETATM    8   C1 U02 A 100       8.853  25.610   4.034  1.00 15.10     -0.017 A
HETATM    9  C6B U02 A 100       7.524  26.062   4.051  1.00 18.90      0.015 A
HETATM   10  C1G U02 A 100       9.472  24.813   2.881  1.00 14.30      0.052 C
HETATM   11   CA U02 A 100      10.644  23.904   3.322  1.00 15.90      0.070 A
HETATM   12   C2 U02 A 100      10.286  22.768   4.075  1.00 23.50      0.298 A
HETATM   13   O2 U02 A 100       9.157  22.354   4.159  1.00 32.10     -0.259 OA
HETATM   14   O3 U02 A 100      11.230  21.925   4.446  1.00 22.00     -0.278 OA
HETATM   15   C4 U02 A 100      12.529  22.110   4.129  1.00 23.90      0.083 A
HETATM   16   C5 U02 A 100      12.966  23.242   3.434  1.00 15.40      0.048 A
HETATM   17   C6 U02 A 100      12.003  24.157   3.005  1.00 11.10      0.134 A
HETATM   18   O6 U02 A 100      12.523  25.330   2.543  1.00 7.80      -0.190 OA
ENDROOT
BRANCH 1 19
HETATM   19  C2Z U02 A 100       4.235  29.248   4.948  1.00 9.40       0.116 C
BRANCH 19 20
HETATM   20  C3Z U02 A 100       5.754  29.021   4.872  1.00 11.90      0.141 C
BRANCH 20 21
HETATM   21  N3Z U02 A 100       0.822  30.505   2.059  1.00 23.90     -0.212 NA
HETATM   22  C4Z U02 A 100       0.187  31.561   1.574  1.00 47.70      0.383 C
HETATM   23  O4Z U02 A 100       0.582  32.728   1.716  1.00 57.60     -0.236 OA
BRANCH 22 24
HETATM   24  OZ5 U02 A 100       4.337  32.998   3.160  1.00 57.20     -0.289 OA
BRANCH 24 25
HETATM   25  C5Z U02 A 100       6.091  34.241   2.632  1.00 49.20      0.103 C
HETATM   26  C6Z U02 A 100       6.006  35.082   1.349  1.00 43.60      0.030 C
HETATM   27  C7Z U02 A 100       5.634  35.096   3.822  1.00 39.90      0.030 C
HETATM   28  C8Z U02 A 100       7.538  33.810   2.880  1.00 52.80      0.030 C
ENDBRANCH 24 25
ENDBRANCH 22 24
ENDBRANCH 20 21
ENDBRANCH 19 20
ENDBRANCH 1 19
BRANCH 10 29
HETATM   29  C2G U02 A 100       8.399  24.113   2.101  1.00 20.80      0.008 A
HETATM   30  C3G U02 A 100       8.131  24.311   0.629  1.00 24.50      0.001 A
HETATM   31  C4G U02 A 100       7.075  24.686   1.651  1.00 27.30      0.001 A
ENDBRANCH 10 29
BRANCH 15 32
HETATM   32   CD U02 A 100      13.485  21.003   4.270  1.00 22.80      0.050 C
BRANCH 32 33
HETATM   33  C1D U02 A 100      14.594  20.393   5.143  1.00 17.10      0.007 C
HETATM   34  C2D U02 A 100      15.997  20.794   4.637  1.00 8.50       0.000 C
ENDBRANCH 32 33
BRANCH 32 35
HETATM   35   CE U02 A 100      13.731  20.519   2.827  1.00 17.10      0.033 C
BRANCH 35 36
HETATM   36  C1E U02 A 100      14.357  21.894   2.935  1.00 34.10     -0.022 A
HETATM   37  C6E U02 A 100      13.833  22.975   2.249  1.00 57.90     -0.004 A
HETATM   38  C5E U02 A 100      14.443  24.220   2.350  1.00 50.00     -0.000 A
HETATM   39  C4E U02 A 100      15.571  24.390   3.142  1.00 61.60     -0.000 A
HETATM   40  C3E U02 A 100      16.086  23.303   3.837  1.00 65.60     -0.000 A
HETATM   41  C2E U02 A 100      15.477  22.058   3.739  1.00 56.70     -0.004 A
ENDBRANCH 35 36
ENDBRANCH 32 35
ENDBRANCH 15 32
TORSDOF 13
