REMARK 10 active torsions:
REMARK status: ('A' for Active; 'I' for Inactive)
REMARK 1 A between atoms: CZ1_1 and CZ2_32
REMARK I between atoms: CZ1_1 and NZ1_3
REMARK I between atoms: NZ1_3 and CB5_4
REMARK I between atoms: CB1_8 and CG1_10
REMARK 2 A between atoms: CG1_10 and CG2_19
REMARK I between atoms: CG1_10 and CA_11
REMARK 3 A between atoms: CA4_15 and CD_22
REMARK 4 A between atoms: CD_22 and CD1_23
REMARK 5 A between atoms: CD_22 and CE_25
REMARK 6 A between atoms: CE_25 and CE1_26
REMARK 7 A between atoms: CZ2_32 and CZ3_33
REMARK 8 A between atoms: CZ3_33 and NZ3_34
REMARK I between atoms: NZ3_34 and CZ4_35
REMARK 9 A between atoms: CZ4_35 and OZ5_37
REMARK 10 A between atoms: OZ5_37 and CZ5_38
ROOT
HETATM    1   C1 U02 A 100       7.426  29.157   8.758  1.00 16.00      0.258 C
HETATM    2   O1 U02 A 100       8.333  29.980   8.879  1.00 23.80     -0.270 OA
HETATM    3   N1 U02 A 100       7.676  27.860   8.709  1.00 18.60     -0.212 NA
HETATM    4   C5 U02 A 100       9.043  27.507   8.791  1.00 26.10      0.084 A
HETATM    5   C4 U02 A 100       9.642  27.577  10.044  1.00 39.90      0.019 A
HETATM    6   C3 U02 A 100      10.975  27.220  10.218  1.00 39.00      0.001 A
HETATM    7   C2 U02 A 100      11.719  26.781   9.131  1.00 25.30     -0.004 A
HETATM    8   C1 U02 A 100      11.142  26.728   7.866  1.00 15.10     -0.017 A
HETATM    9  C6B U02 A 100       9.787  27.054   7.691  1.00 18.90      0.015 A
HETATM   10  C1G U02 A 100      12.088  26.357   6.720  1.00 14.30      0.052 C
HETATM   11   CA U02 A 100      13.260  25.448   7.161  1.00 15.90      0.070 A
HETATM   12   C2 U02 A 100      12.918  24.116   7.470  1.00 23.50      0.298 A
HETATM   13   O2 U02 A 100      11.864  23.614   7.169  1.00 32.10     -0.259 OA
HETATM   14   O3 U02 A 100      13.874  23.274   7.810  1.00 22.00     -0.278 OA
HETATM   15   C4 U02 A 100      15.172  23.641   7.872  1.00 23.90      0.083 A
HETATM   16   C5 U02 A 100      15.580  24.958   7.634  1.00 15.40      0.048 A
HETATM   17   C6 U02 A 100      14.606  25.884   7.256  1.00 11.10      0.134 A
HETATM   18   O6 U02 A 100      15.042  27.177   7.266  1.00 7.80      -0.190 OA
ENDROOT
BRANCH 1 19
HETATM   19  C2Z U02 A 100       5.973  29.577   8.618  1.00 9.40       0.116 C
BRANCH 19 20
HETATM   20  C3Z U02 A 100       7.345  30.153   8.232  1.00 11.90      0.141 C
BRANCH 20 21
HETATM   21  N3Z U02 A 100       6.595  32.126   7.361  1.00 23.90     -0.212 NA
HETATM   22  C4Z U02 A 100       7.398  33.171   7.491  1.00 47.70      0.383 C
HETATM   23  O4Z U02 A 100       8.535  33.109   7.982  1.00 57.60     -0.236 OA
BRANCH 22 24
HETATM   24  OZ5 U02 A 100       4.911  34.652   5.274  1.00 57.20     -0.289 OA
BRANCH 24 25
HETATM   25  C5Z U02 A 100       4.165  35.603   5.595  1.00 49.20      0.103 C
HETATM   26  C6Z U02 A 100       2.761  36.050   5.159  1.00 43.60      0.030 C
HETATM   27  C7Z U02 A 100       4.581  36.401   6.839  1.00 39.90      0.030 C
HETATM   28  C8Z U02 A 100       5.174  35.890   4.482  1.00 52.80      0.030 C
ENDBRANCH 24 25
ENDBRANCH 22 24
ENDBRANCH 20 21
ENDBRANCH 19 20
ENDBRANCH 1 19
BRANCH 10 29
HETATM   29  C2G U02 A 100      11.306  25.842   5.549  1.00 20.80      0.008 A
HETATM   30  C3G U02 A 100      10.747  24.444   5.429  1.00 24.50      0.001 A
HETATM   31  C4G U02 A 100      11.799  24.929   4.451  1.00 27.30      0.001 A
ENDBRANCH 10 29
BRANCH 15 32
HETATM   32   CD U02 A 100      16.224  22.616   7.927  1.00 22.80      0.050 C
BRANCH 32 33
HETATM   33  C1D U02 A 100      17.665  22.207   7.584  1.00 17.10      0.007 C
HETATM   34  C2D U02 A 100      18.618  23.423   7.605  1.00 8.50       0.000 C
ENDBRANCH 32 33
BRANCH 32 35
HETATM   35   CE U02 A 100      16.825  22.602   6.508  1.00 17.10      0.033 C
BRANCH 35 36
HETATM   36  C1E U02 A 100      16.615  23.746   7.477  1.00 34.10     -0.022 A
HETATM   37  C6E U02 A 100      15.392  24.386   7.575  1.00 57.90     -0.004 A
HETATM   38  C5E U02 A 100      15.236  25.448   8.458  1.00 50.00     -0.000 A
HETATM   39  C4E U02 A 100      16.297  25.869   9.250  1.00 61.60     -0.000 A
HETATM   40  C3E U02 A 100      17.519  25.215   9.155  1.00 65.60     -0.000 A
HETATM   41  C2E U02 A 100      17.677  24.152   8.274  1.00 56.70     -0.004 A
ENDBRANCH 35 36
ENDBRANCH 32 35
ENDBRANCH 15 32
TORSDOF 13
