REMARK  10 active torsions:
REMARK  status: ('A' for Active; 'I' for Inactive)
REMARK    1  A    between atoms: C11_1  and  C10_3 
REMARK       I    between atoms: C11_1  and  C12_24 
REMARK    2  A    between atoms: C10_3  and  N3_4 
REMARK    3  A    between atoms: C2_5  and  C3_10 
REMARK    4  A    between atoms: N1_7  and  C31_17 
REMARK       I    between atoms: C3_10  and  N2_12 
REMARK    5  A    between atoms: N2_12  and  C4_13 
REMARK    6  A    between atoms: C31_17  and  C32_18 
REMARK       I    between atoms: C12_24  and  C13_25 
REMARK    7  A    between atoms: C13_25  and  C21_33 
REMARK    8  A    between atoms: C13_25  and  C14_26 
REMARK    9  A    between atoms: C14_26  and  C15_27 
REMARK       I    between atoms: C21_33  and  N4_35 
REMARK   10  A    between atoms: N4_35  and  C22_36 
ROOT
HETATM    1  C11 MK1 B 902      14.349  24.839   5.122  1.00 20.57     0.186 C 
HETATM    2  O2  MK1 B 902      15.309  25.667   4.829  1.00 17.97    -0.221 OA
HETATM    3  C12 MK1 B 902      14.449  24.542   6.632  1.00 21.51     0.045 C 
HETATM    4  C13 MK1 B 902      15.649  23.713   7.109  1.00 18.27     0.088 C 
ENDROOT
BRANCH   1   5
HETATM    5  C10 MK1 B 902      13.070  25.495   4.565  1.00 26.05     0.283 C 
BRANCH   5   6
HETATM    6  N3  MK1 B 902      11.861  24.645   4.522  1.00 24.92     0.151 N 
HETATM    7  C8  MK1 B 902      11.778  24.429   3.071  1.00 17.02     0.286 C 
HETATM    8  C9  MK1 B 902      10.505  23.698   2.690  1.00 31.62     0.286 C 
HETATM    9  N1  MK1 B 902       9.335  24.468   3.114  1.00 35.39     0.146 N 
HETATM   10  C1  MK1 B 902       9.403  24.738   4.569  1.00 32.28     0.294 C 
HETATM   11  C2  MK1 B 902      10.700  25.463   4.954  1.00 26.29     0.332 C 
BRANCH   9  12
HETATM   12  C31 MK1 B 902       8.209  23.546   2.930  1.00 48.68     0.278 C 
BRANCH  12  13
HETATM   13  C32 MK1 B 902       6.865  24.259   2.841  1.00 67.03     0.030 A 
HETATM   14  C36 MK1 B 902       5.814  23.924   3.724  1.00 73.41     0.001 A 
HETATM   15  C35 MK1 B 902       4.556  24.555   3.624  1.00 79.27     0.020 A 
HETATM   16  C34 MK1 B 902       4.420  25.529   2.603  1.00 82.04     0.099 A 
HETATM   17  N5  MK1 B 902       5.428  25.834   1.770  1.00 79.67    -0.243 NA
HETATM   18  C33 MK1 B 902       6.625  25.242   1.856  1.00 71.12     0.097 A 
ENDBRANCH  12  13
ENDBRANCH   9  12
BRANCH  11  19
HETATM   19  C3  MK1 B 902      10.751  25.677   6.456  1.00 29.21     0.285 C 
HETATM   20  O1  MK1 B 902      11.153  24.780   7.197  1.00 29.50    -0.268 OA
HETATM   21  N2  MK1 B 902      10.334  26.899   6.871  1.00 33.48    -0.240 NA
BRANCH  21  22
HETATM   22  C4  MK1 B 902      10.062  27.213   8.273  1.00 31.25     0.088 C 
HETATM   23  C5  MK1 B 902       9.468  28.612   8.385  1.00 31.81     0.025 C 
HETATM   24  C7  MK1 B 902       8.938  26.303   8.787  1.00 37.75     0.025 C 
HETATM   25  C6  MK1 B 902      11.367  27.124   9.106  1.00 25.98     0.025 C 
ENDBRANCH  21  22
ENDBRANCH  11  19
ENDBRANCH   5   6
ENDBRANCH   1   5
BRANCH   4  26
HETATM   26  C21 MK1 B 902      15.565  22.340   6.535  1.00 19.05     0.252 C 
HETATM   27  O3  MK1 B 902      14.518  21.691   6.570  1.00 19.49    -0.271 OA
HETATM   28  N4  MK1 B 902      16.733  21.894   6.090  1.00 22.29    -0.233 NA
BRANCH  28  29
HETATM   29  C22 MK1 B 902      16.899  20.476   5.832  1.00 17.01     0.159 C 
HETATM   30  C30 MK1 B 902      16.761  20.034   4.452  1.00 13.75    -0.001 A 
HETATM   31  C25 MK1 B 902      17.611  18.938   4.248  1.00 25.09    -0.022 A 
HETATM   32  C29 MK1 B 902      15.877  20.495   3.480  1.00 16.72    -0.003 A 
HETATM   33  C26 MK1 B 902      17.597  18.220   3.032  1.00 20.53    -0.004 A 
HETATM   34  C24 MK1 B 902      18.469  18.621   5.496  1.00 27.21     0.061 C 
HETATM   35  C27 MK1 B 902      16.696  18.666   2.038  1.00 20.51    -0.000 A 
HETATM   36  C28 MK1 B 902      15.857  19.802   2.247  1.00 19.69    -0.000 A 
HETATM   37  C23 MK1 B 902      18.345  19.997   6.079  1.00 24.81     0.183 C 
HETATM   38  O4  MK1 B 902      19.245  20.714   5.416  1.00 18.12    -0.221 OA
ENDBRANCH  28  29
ENDBRANCH   4  26
BRANCH   4  39
HETATM   39  C14 MK1 B 902      15.755  23.609   8.630  1.00 24.39     0.036 C 
BRANCH  39  40
HETATM   40  C15 MK1 B 902      16.913  22.726   9.048  1.00 30.60    -0.022 A 
HETATM   41  C16 MK1 B 902      18.239  22.993   8.666  1.00 34.16    -0.004 A 
HETATM   42  C17 MK1 B 902      19.270  22.089   8.983  1.00 35.52    -0.000 A 
HETATM   43  C18 MK1 B 902      18.935  20.914   9.697  1.00 38.31    -0.000 A 
HETATM   44  C19 MK1 B 902      17.615  20.646  10.122  1.00 37.64    -0.000 A 
HETATM   45  C20 MK1 B 902      16.611  21.574   9.787  1.00 38.69    -0.004 A 
ENDBRANCH  39  40
ENDBRANCH   4  39
TORSDOF 12
