REMARK 10 active torsions:
REMARK status: ('A' for Active; 'I' for Inactive)
REMARK 1 A between atoms: CZ1_1 and CZ2_32
REMARK I between atoms: CZ1_1 and NZ1_3
REMARK I between atoms: NZ1_3 and CB5_4
REMARK I between atoms: CB1_8 and CG1_10
REMARK 2 A between atoms: CG1_10 and CG2_19
REMARK I between atoms: CG1_10 and CA_11
REMARK 3 A between atoms: CA4_15 and CD_22
REMARK 4 A between atoms: CD_22 and CD1_23
REMARK 5 A between atoms: CD_22 and CE_25
REMARK 6 A between atoms: CE_25 and CE1_26
REMARK 7 A between atoms: CZ2_32 and CZ3_33
REMARK 8 A between atoms: CZ3_33 and NZ3_34
REMARK I between atoms: NZ3_34 and CZ4_35
REMARK 9 A between atoms: CZ4_35 and OZ5_37
REMARK 10 A between atoms: OZ5_37 and CZ5_38
ROOT
HETATM    1   C1 U02 A 100       4.580  25.678   0.356  1.00 16.00      0.258 C
HETATM    2   O1 U02 A 100       4.411  25.645   1.575  1.00 23.80     -0.270 OA
HETATM    3   N1 U02 A 100       5.716  25.282  -0.191  1.00 18.60     -0.212 NA
HETATM    4   C5 U02 A 100       6.703  24.840   0.722  1.00 26.10      0.084 A
HETATM    5   C4 U02 A 100       6.530  23.579   1.281  1.00 39.90      0.019 A
HETATM    6   C3 U02 A 100       7.468  23.057   2.166  1.00 39.00      0.001 A
HETATM    7   C2 U02 A 100       8.595  23.799   2.493  1.00 25.30     -0.004 A
HETATM    8   C1 U02 A 100       8.771  25.072   1.960  1.00 15.10     -0.017 A
HETATM    9  C6B U02 A 100       7.845  25.590   1.040  1.00 18.90      0.015 A
HETATM   10  C1G U02 A 100       9.979  25.851   2.490  1.00 14.30      0.052 C
HETATM   11   CA U02 A 100      11.151  24.942   2.931  1.00 15.90      0.070 A
HETATM   12   C2 U02 A 100      11.862  24.312   1.890  1.00 23.50      0.298 A
HETATM   13   O2 U02 A 100      11.773  24.639   0.732  1.00 32.10     -0.259 OA
HETATM   14   O3 U02 A 100      12.901  23.559   2.191  1.00 22.00     -0.278 OA
HETATM   15   C4 U02 A 100      13.312  23.369   3.463  1.00 23.90      0.083 A
HETATM   16   C5 U02 A 100      12.623  23.915   4.551  1.00 15.40      0.048 A
HETATM   17   C6 U02 A 100      11.524  24.734   4.283  1.00 11.10      0.134 A
HETATM   18   O6 U02 A 100      10.780  25.036   5.386  1.00 7.80      -0.190 OA
ENDROOT
BRANCH 1 19
HETATM   19  C2Z U02 A 100       3.517  26.210  -0.589  1.00 9.40       0.116 C
BRANCH 19 20
HETATM   20  C3Z U02 A 100       2.734  27.416  -1.133  1.00 11.90      0.141 C
BRANCH 20 21
HETATM   21  N3Z U02 A 100       2.247  27.381  -1.790  1.00 23.90     -0.212 NA
HETATM   22  C4Z U02 A 100       0.952  27.590  -1.602  1.00 47.70      0.383 C
HETATM   23  O4Z U02 A 100       0.398  27.525  -0.494  1.00 57.60     -0.236 OA
BRANCH 22 24
HETATM   24  OZ5 U02 A 100       5.546  24.518  -5.082  1.00 57.20     -0.289 OA
BRANCH 24 25
HETATM   25  C5Z U02 A 100       0.376  34.047  -4.084  1.00 49.20      0.103 C
HETATM   26  C6Z U02 A 100      -1.069  33.541  -3.959  1.00 43.60      0.030 C
HETATM   27  C7Z U02 A 100       0.370  35.582  -4.093  1.00 39.90      0.030 C
HETATM   28  C8Z U02 A 100       0.987  33.563  -5.400  1.00 52.80      0.030 C
ENDBRANCH 24 25
ENDBRANCH 22 24
ENDBRANCH 20 21
ENDBRANCH 19 20
ENDBRANCH 1 19
BRANCH 10 29
HETATM   29  C2G U02 A 100      10.359  26.935   1.526  1.00 20.80      0.008 A
HETATM   30  C3G U02 A 100      11.769  27.412   1.272  1.00 24.50      0.001 A
HETATM   31  C4G U02 A 100      10.739  28.360   1.855  1.00 27.30      0.001 A
ENDBRANCH 10 29
BRANCH 15 32
HETATM   32   CD U02 A 100      14.643  22.807   3.729  1.00 22.80      0.050 C
BRANCH 32 33
HETATM   33  C1D U02 A 100      14.517  21.382   3.168  1.00 17.10      0.007 C
HETATM   34  C2D U02 A 100      15.708  20.497   3.599  1.00 8.50       0.000 C
ENDBRANCH 32 33
BRANCH 32 35
HETATM   35   CE U02 A 100      15.490  24.015   4.176  1.00 17.10      0.033 C
BRANCH 35 36
HETATM   36  C1E U02 A 100      16.877  23.848   4.760  1.00 34.10     -0.022 A
HETATM   37  C6E U02 A 100      17.867  23.171   4.070  1.00 57.90     -0.004 A
HETATM   38  C5E U02 A 100      19.124  23.014   4.642  1.00 50.00     -0.000 A
HETATM   39  C4E U02 A 100      19.399  23.539   5.898  1.00 61.60     -0.000 A
HETATM   40  C3E U02 A 100      18.404  24.227   6.581  1.00 65.60     -0.000 A
HETATM   41  C2E U02 A 100      17.146  24.386   6.012  1.00 56.70     -0.004 A
ENDBRANCH 35 36
ENDBRANCH 32 35
ENDBRANCH 15 32
TORSDOF 13
